pglib-opf-21.07/pglib_opf_case19402_goc.m
%%%%%%%%%%%%%%%%%%%%%%%%%%%%%%%%%%%%%%%%%%%%%%%%%%%%%%%%%%%%%%%%%%%%%%%%%%%
%%%%                                                                  %%%%%
%%%%    IEEE PES Power Grid Library - Optimal Power Flow - v21.07     %%%%%
%%%%          (https://github.com/power-grid-lib/pglib-opf)           %%%%%
%%%%               Benchmark Group - Typical Operations               %%%%%
%%%%                         29 - July - 2021                         %%%%%
%%%%                                                                  %%%%%
%%%%%%%%%%%%%%%%%%%%%%%%%%%%%%%%%%%%%%%%%%%%%%%%%%%%%%%%%%%%%%%%%%%%%%%%%%%
%
%   This is a synthetic 19,402 bus case, developed for use in ARPA-e's Grid
%   Optimization Competition, Challenge 1.
%
%   https://gocompetition.energy.gov/challenges/22/datasets
%
%   Copyright (c) 2020 University of Wisconsin-Madison
%   https://dev.epigrids.discovery.wisc.edu/
%   Licensed under the Creative Commons Attribution 4.0 International license,
%   http://creativecommons.org/licenses/by/4.0/
%
function mpc = pglib_opf_case19402_goc
mpc.version = '2';
mpc.baseMVA = 100.0;

%% bus data
%	bus_i	type	Pd	Qd	Gs	Bs	area	Vm	Va	baseKV	zone	Vmax	Vmin
mpc.bus = [
	35250	 2	 0.0	 0.0	 0.0	 0.0	 1	    1.00000	    0.00000	 500.0	 2	    1.10000	    0.90000;
	35251	 2	 0.0	 0.0	 0.0	 0.0	 1	    1.00000	    0.00000	 500.0	 2	    1.10000	    0.90000;
	35252	 2	 0.0	 0.0	 0.0	 0.0	 1	    1.00000	    0.00000	 500.0	 2	    1.10000	    0.90000;
	35253	 1	 0.0	 0.0	 0.0	 0.0	 1	    1.00000	    0.00000	 500.0	 1	    1.10000	    0.90000;
	35254	 2	 0.0	 0.0	 0.0	 0.0	 1	    1.00000	    0.00000	 500.0	 2	    1.10000	    0.90000;
	35255	 2	 0.0	 0.0	 0.0	 0.0	 1	    1.00000	    0.00000	 500.0	 2	    1.10000	    0.90000;
	35256	 2	 0.0	 0.0	 0.0	 0.0	 1	    1.00000	    0.00000	 500.0	 2	    1.10000	    0.90000;
	35257	 2	 0.0	 0.0	 0.0	 0.0	 1	    1.00000	    0.00000	 500.0	 2	    1.10000	    0.90000;
	35258	 1	 0.0	 0.0	 0.0	 0.0	 1	    1.00000	    0.00000	 500.0	 1	    1.10000	    0.90000;
	35259	 1	 0.0	 0.0	 0.0	 0.0	 1	    1.00000	    0.00000	 345.0	 1	    1.10000	    0.90000;
	35260	 1	 0.0	 0.0	 0.0	 0.0	 1	    1.00000	    0.00000	 500.0	 1	    1.10000	    0.90000;
	35261	 1	 0.0	 0.0	 0.0	 0.0	 1	    1.00000	    0.00000	 500.0	 1	    1.10000	    0.90000;
	35262	 1	 0.0	 0.0	 0.0	 0.0	 1	    1.00000	    0.00000	 500.0	 1	    1.10000	    0.90000;
	35263	 1	 0.0	 0.0	 0.0	 0.0	 1	    1.00000	    0.00000	 138.0	 2	    1.10000	    0.90000;
	35264	 2	 0.0	 0.0	 0.0	 0.0	 1	    1.00000	    0.00000	 230.0	 2	    1.10000	    0.90000;
	35265	 2	 0.0	 0.0	 0.0	 0.0	 1	    1.00000	    0.00000	 500.0	 2	    1.10000	    0.90000;
	35266	 2	 0.0	 0.0	 0.0	 0.0	 1	    1.00000	    0.00000	 500.0	 2	    1.10000	    0.90000;
	35267	 1	 0.0	 0.0	 0.0	 0.0	 1	    1.00000	    0.00000	 500.0	 1	    1.10000	    0.90000;
	35268	 1	 0.0	 0.0	 0.0	 0.0	 1	    1.00000	    0.00000	 500.0	 1	    1.10000	    0.90000;
	35269	 1	 0.0	 0.0	 0.0	 0.0	 1	    1.00000	    0.00000	 500.0	 1	    1.10000	    0.90000;
	35270	 1	 0.0	 0.0	 0.0	 0.0	 1	    1.00000	    0.00000	 500.0	 1	    1.10000	    0.90000;
	35271	 1	 0.0	 0.0	 0.0	 0.0	 1	    1.00000	    0.00000	 500.0	 1	    1.10000	    0.90000;
	35272	 2	 0.0	 0.0	 0.0	 0.0	 1	    1.00000	    0.00000	 138.0	 2	    1.10000	    0.90000;
	35273	 1	 0.0	 0.0	 0.0	 0.0	 1	    1.00000	    0.00000	 500.0	 1	    1.10000	    0.90000;
	35274	 1	 0.0	 0.0	 0.0	 0.0	 1	    1.00000	    0.00000	 138.0	 1	    1.10000	    0.90000;
	35275	 2	 0.0	 0.0	 0.0	 0.0	 1	    1.00000	    0.00000	 138.0	 2	    1.10000	    0.90000;
	35276	 1	 0.0	 0.0	 0.0	 0.0	 1	    1.00000	    0.00000	 138.0	 2	    1.10000	    0.90000;
	35277	 2	 0.0	 0.0	 0.0	 0.0	 1	    1.00000	    0.00000	 138.0	 2	    1.10000	    0.90000;
	35278	 1	 0.0	 0.0	 0.0	 0.0	 1	    1.00000	    0.00000	 345.0	 1	    1.10000	    0.90000;
	35279	 2	 0.0	 0.0	 0.0	 0.0	 1	    1.00000	    0.00000	 138.0	 2	    1.10000	    0.90000;
	35280	 2	 0.0	 0.0	 0.0	 0.0	 1	    1.00000	    0.00000	 138.0	 2	    1.10000	    0.90000;
	35281	 2	 0.0	 0.0	 0.0	 0.0	 1	    1.00000	    0.00000	 138.0	 2	    1.10000	    0.90000;
	35282	 1	 0.0	 0.0	 0.0	 0.0	 1	    1.00000	    0.00000	 345.0	 1	    1.10000	    0.90000;
	35284	 1	 0.0	 0.0	 0.0	 0.0	 1	    1.00000	    0.00000	 230.0	 1	    1.10000	    0.90000;
	35285	 2	 71.554	 37.66	 0.0	 0.0	 1	    1.00000	    0.00000	 69.0	 2	    1.10000	    0.90000;
	35286	 1	 0.0	 0.0	 0.0	 0.0	 1	    1.00000	    0.00000	 230.0	 1	    1.10000	    0.90000;
	35287	 2	 0.0	 0.0	 0.0	 0.0	 1	    1.00000	    0.00000	 138.0	 2	    1.10000	    0.90000;
	35288	 2	 0.0	 0.0	 0.0	 0.0	 1	    1.00000	    0.00000	 69.0	 2	    1.10000	    0.90000;
	35289	 1	 0.0	 0.0	 0.0	 0.0	 1	    1.00000	    0.00000	 138.0	 2	    1.10000	    0.90000;
	35290	 2	 72.314	 38.06	 0.0	 0.0	 1	    1.00000	    0.00000	 69.0	 2	    1.10000	    0.90000;
	35291	 1	 0.0	 0.0	 0.0	 0.0	 1	    1.00000	    0.00000	 69.0	 2	    1.10000	    0.90000;
	35292	 1	 0.0	 0.0	 0.0	 0.0	 1	    1.00000	    0.00000	 230.0	 1	    1.10000	    0.90000;
	35293	 1	 0.0	 0.0	 0.0	 0.0	 1	    1.00000	    0.00000	 500.0	 1	    1.10000	    0.90000;
	35294	 2	 0.0	 0.0	 0.0	 0.0	 1	    1.00000	    0.00000	 138.0	 2	    1.10000	    0.90000;
	35295	 1	 0.0	 0.0	 0.0	 0.0	 1	    1.00000	    0.00000	 138.0	 2	    1.10000	    0.90000;
	35296	 1	 0.0	 0.0	 0.0	 0.0	 1	    1.00000	    0.00000	 500.0	 1	    1.10000	    0.90000;
	35297	 2	 0.0	 0.0	 0.0	 0.0	 1	    1.00000	    0.00000	 138.0	 2	    1.10000	    0.90000;
	35298	 2	 0.0	 0.0	 0.0	 0.0	 1	    1.00000	    0.00000	 138.0	 2	    1.10000	    0.90000;
	35300	 2	 0.0	 0.0	 0.0	 0.0	 1	    1.00000	    0.00000	 138.0	 2	    1.10000	    0.90000;
	35301	 2	 0.0	 0.0	 0.0	 0.0	 1	    1.00000	    0.00000	 138.0	 2	    1.10000	    0.90000;
	35302	 2	 0.0	 0.0	 0.0	 0.0	 1	    1.00000	    0.00000	 138.0	 2	    1.10000	    0.90000;
	35303	 1	 0.0	 0.0	 0.0	 0.0	 1	    1.00000	    0.00000	 230.0	 1	    1.10000	    0.90000;
	35304	 1	 0.0	 0.0	 0.0	 0.0	 1	    1.00000	    0.00000	 500.0	 1	    1.10000	    0.90000;
	35305	 1	 0.0	 0.0	 0.0	 0.0	 1	    1.00000	    0.00000	 230.0	 1	    1.10000	    0.90000;
	35306	 1	 0.0	 0.0	 0.0	 0.0	 1	    1.00000	    0.00000	 230.0	 1	    1.10000	    0.90000;
	35307	 1	 0.0	 0.0	 0.0	 0.0	 1	    1.00000	    0.00000	 138.0	 1	    1.10000	    0.90000;
	35308	 2	 0.0	 0.0	 0.0	 0.0	 1	    1.00000	    0.00000	 345.0	 2	    1.10000	    0.90000;
	35309	 1	 0.0	 0.0	 0.0	 0.0	 1	    1.00000	    0.00000	 765.0	 1	    1.10000	    0.90000;
	35310	 1	 0.0	 0.0	 0.0	 0.0	 1	    1.00000	    0.00000	 500.0	 1	    1.10000	    0.90000;
	35311	 2	 0.0	 0.0	 0.0	 0.0	 1	    1.00000	    0.00000	 765.0	 2	    1.10000	    0.90000;
	35312	 1	 0.0	 0.0	 0.0	 0.0	 1	    1.00000	    0.00000	 765.0	 1	    1.10000	    0.90000;
	35313	 1	 0.0	 0.0	 0.0	 0.0	 1	    1.00000	    0.00000	 500.0	 1	    1.10000	    0.90000;
	35314	 1	 0.0	 0.0	 0.0	 0.0	 1	    1.00000	    0.00000	 765.0	 1	    1.10000	    0.90000;
	35315	 1	 0.0	 0.0	 0.0	 0.0	 1	    1.00000	    0.00000	 500.0	 1	    1.10000	    0.90000;
	35316	 1	 0.0	 0.0	 0.0	 0.0	 1	    1.00000	    0.00000	 765.0	 1	    1.10000	    0.90000;
	35317	 1	 0.0	 0.0	 0.0	 0.0	 1	    1.00000	    0.00000	 765.0	 1	    1.10000	    0.90000;
	35318	 1	 0.0	 0.0	 0.0	 0.0	 1	    1.00000	    0.00000	 765.0	 1	    1.10000	    0.90000;
	35319	 1	 0.0	 0.0	 0.0	 0.0	 1	    1.00000	    0.00000	 765.0	 1	    1.10000	    0.90000;
	35320	 1	 0.0	 0.0	 0.0	 0.0	 1	    1.00000	    0.00000	 500.0	 1	    1.10000	    0.90000;
	35321	 1	 0.0	 0.0	 0.0	 0.0	 1	    1.00000	    0.00000	 765.0	 1	    1.10000	    0.90000;
	35322	 1	 0.0	 0.0	 0.0	 0.0	 1	    1.00000	    0.00000	 765.0	 1	    1.10000	    0.90000;
	35323	 2	 0.0	 0.0	 0.0	 0.0	 1	    1.00000	    0.00000	 500.0	 2	    1.10000	    0.90000;
	35324	 1	 0.0	 0.0	 0.0	 0.0	 1	    1.00000	    0.00000	 765.0	 1	    1.10000	    0.90000;
	35325	 1	 0.0	 0.0	 0.0	 0.0	 1	    1.00000	    0.00000	 765.0	 1	    1.10000	    0.90000;
	35326	 1	 0.0	 0.0	 0.0	 0.0	 1	    1.00000	    0.00000	 138.0	 2	    1.10000	    0.90000;
	35327	 1	 0.0	 0.0	 0.0	 0.0	 1	    1.00000	    0.00000	 230.0	 1	    1.10000	    0.90000;
	35328	 1	 0.0	 0.0	 0.0	 0.0	 1	    1.00000	    0.00000	 138.0	 1	    1.10000	    0.90000;
	35329	 1	 0.0	 0.0	 0.0	 0.0	 1	    1.00000	    0.00000	 765.0	 1	    1.10000	    0.90000;
	35330	 2	 0.0	 0.0	 0.0	 0.0	 1	    1.00000	    0.00000	 138.0	 2	    1.10000	    0.90000;
	35331	 2	 0.0	 0.0	 0.0	 0.0	 1	    1.00000	    0.00000	 138.0	 2	    1.10000	    0.90000;
	35332	 1	 0.0	 0.0	 0.0	 0.0	 1	    1.00000	    0.00000	 138.0	 2	    1.10000	    0.90000;
	35333	 2	 0.0	 0.0	 0.0	 0.0	 1	    1.00000	    0.00000	 500.0	 2	    1.10000	    0.90000;
	35334	 2	 0.0	 0.0	 0.0	 0.0	 1	    1.00000	    0.00000	 230.0	 2	    1.10000	    0.90000;
	35335	 2	 0.0	 0.0	 0.0	 0.0	 1	    1.00000	    0.00000	 138.0	 2	    1.10000	    0.90000;
	35336	 2	 0.0	 0.0	 0.0	 0.0	 1	    1.00000	    0.00000	 138.0	 2	    1.10000	    0.90000;
	35337	 2	 0.0	 0.0	 0.0	 0.0	 1	    1.00000	    0.00000	 138.0	 2	    1.10000	    0.90000;
	35338	 1	 0.0	 0.0	 0.0	 0.0	 1	    1.00000	    0.00000	 345.0	 1	    1.10000	    0.90000;
	35339	 1	 0.0	 0.0	 0.0	 0.0	 1	    1.00000	    0.00000	 765.0	 1	    1.10000	    0.90000;
	35340	 1	 0.0	 0.0	 0.0	 0.0	 1	    1.00000	    0.00000	 345.0	 1	    1.10000	    0.90000;
	35341	 1	 0.0	 0.0	 0.0	 0.0	 1	    1.00000	    0.00000	 765.0	 1	    1.10000	    0.90000;
	35342	 1	 0.0	 0.0	 0.0	 0.0	 1	    1.00000	    0.00000	 138.0	 1	    1.10000	    0.90000;
	35343	 3	 0.0	 0.0	 0.0	 0.0	 1	    1.00000	    0.00000	 500.0	 2	    1.10000	    0.90000;
	35344	 1	 0.0	 0.0	 0.0	 0.0	 1	    1.00000	    0.00000	 500.0	 1	    1.10000	    0.90000;
	35345	 2	 0.0	 0.0	 0.0	 0.0	 1	    1.00000	    0.00000	 500.0	 2	    1.10000	    0.90000;
	35346	 1	 0.0	 0.0	 0.0	 0.0	 1	    1.00000	    0.00000	 500.0	 1	    1.10000	    0.90000;
	35347	 2	 0.0	 0.0	 0.0	 0.0	 1	    1.00000	    0.00000	 500.0	 2	    1.10000	    0.90000;
	35348	 2	 0.0	 0.0	 0.0	 0.0	 1	    1.00000	    0.00000	 500.0	 2	    1.10000	    0.90000;
	35349	 2	 0.0	 0.0	 0.0	 0.0	 1	    1.00000	    0.00000	 138.0	 2	    1.10000	    0.90000;
	35350	 2	 0.0	 0.0	 0.0	 0.0	 1	    1.00000	    0.00000	 500.0	 2	    1.10000	    0.90000;
	35351	 2	 0.0	 0.0	 0.0	 0.0	 1	    1.00000	    0.00000	 500.0	 2	    1.10000	    0.90000;
	35352	 2	 0.0	 0.0	 0.0	 0.0	 1	    1.00000	    0.00000	 230.0	 2	    1.10000	    0.90000;
	35353	 2	 0.0	 0.0	 0.0	 0.0	 1	    1.00000	    0.00000	 500.0	 2	    1.10000	    0.90000;
	35354	 2	 0.0	 0.0	 0.0	 0.0	 1	    1.00000	    0.00000	 138.0	 2	    1.10000	    0.90000;
	35355	 2	 0.0	 0.0	 0.0	 0.0	 1	    1.00000	    0.00000	 345.0	 2	    1.10000	    0.90000;
	35356	 2	 0.0	 0.0	 0.0	 0.0	 1	    1.00000	    0.00000	 138.0	 2	    1.10000	    0.90000;
	35357	 2	 0.0	 0.0	 0.0	 0.0	 1	    1.00000	    0.00000	 230.0	 2	    1.10000	    0.90000;
	35358	 1	 0.0	 0.0	 0.0	 0.0	 1	    1.00000	    0.00000	 138.0	 2	    1.10000	    0.90000;
	35359	 1	 0.0	 0.0	 0.0	 0.0	 1	    1.00000	    0.00000	 500.0	 1	    1.10000	    0.90000;
	35360	 2	 0.0	 0.0	 0.0	 0.0	 1	    1.00000	    0.00000	 138.0	 2	    1.10000	    0.90000;
	35361	 1	 0.0	 0.0	 0.0	 0.0	 1	    1.00000	    0.00000	 500.0	 2	    1.10000	    0.90000;
	35362	 1	 0.0	 0.0	 0.0	 0.0	 1	    1.00000	    0.00000	 345.0	 2	    1.10000	    0.90000;
	35363	 1	 0.0	 0.0	 0.0	 0.0	 1	    1.00000	    0.00000	 138.0	 2	    1.10000	    0.90000;
	35364	 1	 0.0	 0.0	 0.0	 0.0	 1	    1.00000	    0.00000	 230.0	 1	    1.10000	    0.90000;
	35365	 1	 0.0	 0.0	 0.0	 0.0	 1	    1.00000	    0.00000	 138.0	 1	    1.10000	    0.90000;
	35366	 2	 0.0	 0.0	 0.0	 0.0	 1	    1.00000	    0.00000	 138.0	 2	    1.10000	    0.90000;
	35367	 1	 0.0	 0.0	 0.0	 0.0	 1	    1.00000	    0.00000	 138.0	 2	    1.10000	    0.90000;
	35368	 2	 0.0	 0.0	 0.0	 0.0	 1	    1.00000	    0.00000	 69.0	 2	    1.10000	    0.90000;
	35369	 1	 0.0	 0.0	 0.0	 0.0	 1	    1.00000	    0.00000	 500.0	 1	    1.10000	    0.90000;
	35370	 2	 53.067	 27.93	 0.0	 0.0	 1	    1.00000	    0.00000	 69.0	 2	    1.10000	    0.90000;
	35371	 1	 0.0	 0.0	 0.0	 0.0	 1	    1.00000	    0.00000	 138.0	 2	    1.10000	    0.90000;
	35372	 1	 110.713	 58.27	 0.0	 0.0	 1	    1.00000	    0.00000	 69.0	 2	    1.10000	    0.90000;
	35373	 1	 0.0	 0.0	 0.0	 0.0	 1	    1.00000	    0.00000	 138.0	 2	    1.10000	    0.90000;
	35374	 1	 0.0	 0.0	 0.0	 0.0	 1	    1.00000	    0.00000	 500.0	 1	    1.10000	    0.90000;
	35375	 1	 19.057	 10.03	 0.0	 0.0	 1	    1.00000	    0.00000	 69.0	 2	    1.10000	    0.90000;
	35376	 1	 0.0	 0.0	 0.0	 0.0	 1	    1.00000	    0.00000	 138.0	 2	    1.10000	    0.90000;
	35377	 1	 0.0	 0.0	 0.0	 0.0	 1	    1.00000	    0.00000	 765.0	 1	    1.10000	    0.90000;
	35378	 1	 0.0	 0.0	 0.0	 0.0	 1	    1.00000	    0.00000	 765.0	 1	    1.10000	    0.90000;
	35379	 1	 0.0	 0.0	 0.0	 0.0	 1	    1.00000	    0.00000	 765.0	 1	    1.10000	    0.90000;
	35380	 1	 0.0	 0.0	 0.0	 0.0	 1	    1.00000	    0.00000	 765.0	 1	    1.10000	    0.90000;
	35381	 1	 0.0	 0.0	 0.0	 0.0	 1	    1.00000	    0.00000	 765.0	 1	    1.10000	    0.90000;
	35382	 1	 0.0	 0.0	 0.0	 0.0	 1	    1.00000	    0.00000	 765.0	 1	    1.10000	    0.90000;
	35383	 1	 0.0	 0.0	 0.0	 0.0	 1	    1.00000	    0.00000	 500.0	 1	    1.10000	    0.90000;
	35384	 1	 0.0	 0.0	 0.0	 0.0	 1	    1.00000	    0.00000	 500.0	 1	    1.10000	    0.90000;
	35385	 1	 0.0	 0.0	 0.0	 0.0	 1	    1.00000	    0.00000	 500.0	 2	    1.10000	    0.90000;
	35386	 1	 0.0	 0.0	 0.0	 0.0	 1	    1.00000	    0.00000	 765.0	 1	    1.10000	    0.90000;
	35387	 2	 0.0	 0.0	 0.0	 0.0	 1	    1.00000	    0.00000	 230.0	 2	    1.10000	    0.90000;
	35388	 1	 0.0	 0.0	 0.0	 0.0	 1	    1.00000	    0.00000	 765.0	 1	    1.10000	    0.90000;
	35389	 1	 0.0	 0.0	 0.0	 0.0	 1	    1.00000	    0.00000	 345.0	 2	    1.10000	    0.90000;
	35390	 1	 0.0	 0.0	 0.0	 0.0	 1	    1.00000	    0.00000	 345.0	 1	    1.10000	    0.90000;
	35391	 1	 0.0	 0.0	 0.0	 0.0	 1	    1.00000	    0.00000	 138.0	 2	    1.10000	    0.90000;
	35392	 1	 0.0	 0.0	 0.0	 0.0	 1	    1.00000	    0.00000	 765.0	 1	    1.10000	    0.90000;
	35393	 1	 0.0	 0.0	 0.0	 0.0	 1	    1.00000	    0.00000	 138.0	 1	    1.10000	    0.90000;
	35394	 2	 0.0	 0.0	 0.0	 0.0	 1	    1.00000	    0.00000	 765.0	 2	    1.10000	    0.90000;
	35395	 1	 0.0	 0.0	 0.0	 0.0	 1	    1.00000	    0.00000	 765.0	 1	    1.10000	    0.90000;
	35396	 2	 0.0	 0.0	 0.0	 0.0	 1	    1.00000	    0.00000	 138.0	 2	    1.10000	    0.90000;
	35397	 2	 5.909	 3.11	 0.0	 0.0	 1	    1.00000	    0.00000	 69.0	 2	    1.10000	    0.90000;
	35398	 2	 0.0	 0.0	 0.0	 0.0	 1	    1.00000	    0.00000	 138.0	 2	    1.10000	    0.90000;
	35399	 2	 0.0	 0.0	 0.0	 0.0	 1	    1.00000	    0.00000	 138.0	 2	    1.10000	    0.90000;
	35400	 1	 0.0	 0.0	 0.0	 0.0	 1	    1.00000	    0.00000	 765.0	 1	    1.10000	    0.90000;
	35401	 2	 0.0	 0.0	 0.0	 0.0	 1	    1.00000	    0.00000	 138.0	 2	    1.10000	    0.90000;
	35402	 1	 0.0	 0.0	 0.0	 0.0	 1	    1.00000	    0.00000	 765.0	 1	    1.10000	    0.90000;
	35403	 2	 0.0	 0.0	 0.0	 0.0	 1	    1.00000	    0.00000	 138.0	 2	    1.10000	    0.90000;
	35404	 1	 0.0	 0.0	 0.0	 0.0	 1	    1.00000	    0.00000	 138.0	 1	    1.10000	    0.90000;
	35405	 1	 0.0	 0.0	 0.0	 0.0	 1	    1.00000	    0.00000	 230.0	 1	    1.10000	    0.90000;
	35406	 2	 0.0	 0.0	 0.0	 0.0	 1	    1.00000	    0.00000	 138.0	 2	    1.10000	    0.90000;
	35407	 1	 0.0	 0.0	 0.0	 0.0	 1	    1.00000	    0.00000	 345.0	 1	    1.10000	    0.90000;
	35408	 2	 0.0	 0.0	 0.0	 0.0	 1	    1.00000	    0.00000	 138.0	 2	    1.10000	    0.90000;
	35409	 2	 0.0	 0.0	 0.0	 0.0	 1	    1.00000	    0.00000	 138.0	 2	    1.10000	    0.90000;
	35410	 2	 0.0	 0.0	 0.0	 0.0	 1	    1.00000	    0.00000	 138.0	 2	    1.10000	    0.90000;
	35411	 1	 0.0	 0.0	 0.0	 0.0	 1	    1.00000	    0.00000	 765.0	 1	    1.10000	    0.90000;
	35412	 2	 0.0	 0.0	 0.0	 0.0	 1	    1.00000	    0.00000	 138.0	 2	    1.10000	    0.90000;
	35413	 2	 11.153	 5.87	 0.0	 0.0	 1	    1.00000	    0.00000	 69.0	 2	    1.10000	    0.90000;
	35414	 1	 0.0	 0.0	 0.0	 0.0	 1	    1.00000	    0.00000	 500.0	 1	    1.10000	    0.90000;
	35415	 2	 37.658	 19.82	 0.0	 0.0	 1	    1.00000	    0.00000	 69.0	 2	    1.10000	    0.90000;
	35416	 2	 0.0	 0.0	 0.0	 0.0	 1	    1.00000	    0.00000	 138.0	 2	    1.10000	    0.90000;
	35417	 2	 0.0	 0.0	 0.0	 0.0	 1	    1.00000	    0.00000	 138.0	 2	    1.10000	    0.90000;
	35418	 1	 20.729	 10.91	 0.0	 0.0	 1	    1.00000	    0.00000	 69.0	 2	    1.10000	    0.90000;
	35419	 2	 0.0	 0.0	 0.0	 0.0	 1	    1.00000	    0.00000	 138.0	 2	    1.10000	    0.90000;
	35420	 2	 43.472	 22.88	 0.0	 0.0	 1	    1.00000	    0.00000	 69.0	 2	    1.10000	    0.90000;
	35421	 1	 0.0	 0.0	 0.0	 0.0	 1	    1.00000	    0.00000	 138.0	 2	    1.10000	    0.90000;
	35422	 1	 7.866	 4.14	 0.0	 0.0	 1	    1.00000	    0.00000	 69.0	 2	    1.10000	    0.90000;
	35423	 1	 0.0	 0.0	 0.0	 0.0	 1	    1.00000	    0.00000	 69.0	 2	    1.10000	    0.90000;
	35424	 1	 1.88	 0.338	 0.0	 0.0	 1	    1.00000	    0.00000	 69.0	 1	    1.10000	    0.90000;
	35425	 1	 5.76	 2.246	 0.0	 0.0	 1	    1.00000	    0.00000	 230.0	 1	    1.10000	    0.90000;
	35426	 1	 0.0	 0.0	 0.0	 0.0	 1	    1.00000	    0.00000	 500.0	 1	    1.10000	    0.90000;
	35427	 1	 12.09	 4.698	 0.0	 0.0	 1	    1.00000	    0.00000	 500.0	 1	    1.10000	    0.90000;
	35428	 1	 36.67	 14.25	 0.0	 14.7009455993	 1	    1.00000	    0.00000	 500.0	 1	    1.10000	    0.90000;
	35429	 1	 0.0	 0.0	 0.0	 0.0	 1	    1.00000	    0.00000	 230.0	 1	    1.10000	    0.90000;
	35430	 1	 39.65	 6.741	 0.0	 13.9807168694	 1	    1.00000	    0.00000	 138.0	 1	    1.10000	    0.90000;
	35431	 1	 58.05	 22.559	 0.0	 0.0	 1	    1.00000	    0.00000	 500.0	 1	    1.10000	    0.90000;
	35432	 1	 31.23	 12.136	 0.0	 0.0	 1	    1.00000	    0.00000	 500.0	 1	    1.10000	    0.90000;
	35433	 1	 0.0	 0.0	 0.0	 0.0	 1	    1.00000	    0.00000	 138.0	 1	    1.10000	    0.90000;
	35434	 1	 2.14	 0.599	 0.0	 33.4868816573	 1	    1.00000	    0.00000	 69.0	 1	    1.10000	    0.90000;
	35435	 1	 0.0	 0.0	 0.0	 0.0	 1	    1.00000	    0.00000	 138.0	 1	    1.10000	    0.90000;
	35436	 1	 5.55	 1.665	 0.0	 0.0	 1	    1.00000	    0.00000	 69.0	 1	    1.10000	    0.90000;
	35437	 1	 13.43	 5.219	 0.0	 -93.0617328035	 1	    1.00000	    0.00000	 500.0	 1	    1.10000	    0.90000;
	35438	 1	 55.7	 21.646	 0.0	 0.0	 1	    1.00000	    0.00000	 500.0	 1	    1.10000	    0.90000;
	35439	 1	 22.01	 7.483	 0.0	 -16.8447037058	 1	    1.00000	    0.00000	 345.0	 1	    1.10000	    0.90000;
	35441	 1	 0.0	 0.0	 0.0	 0.0	 1	    1.00000	    0.00000	 500.0	 1	    1.10000	    0.90000;
	35442	 1	 24.93	 9.688	 0.0	 0.0	 1	    1.00000	    0.00000	 500.0	 1	    1.10000	    0.90000;
	35443	 1	 0.0	 0.0	 0.0	 0.0	 1	    1.00000	    0.00000	 138.0	 1	    1.10000	    0.90000;
	35444	 1	 3.77	 1.169	 0.0	 0.0	 1	    1.00000	    0.00000	 69.0	 1	    1.10000	    0.90000;
	35445	 1	 0.0	 0.0	 0.0	 0.0	 1	    1.00000	    0.00000	 138.0	 1	    1.10000	    0.90000;
	35446	 1	 0.0	 0.0	 0.0	 0.0	 1	    1.00000	    0.00000	 138.0	 1	    1.10000	    0.90000;
	35447	 1	 20.95	 5.657	 0.0	 10.5080924165	 1	    1.00000	    0.00000	 138.0	 1	    1.10000	    0.90000;
	35448	 1	 23.16	 5.327	 0.0	 0.0	 1	    1.00000	    0.00000	 345.0	 1	    1.10000	    0.90000;
	35449	 1	 27.73	 11.28	 0.0	 0.0	 1	    1.00000	    0.00000	 230.0	 1	    1.10000	    0.90000;
	35452	 1	 22.66	 6.118	 0.0	 20.066472673	 1	    1.00000	    0.00000	 230.0	 1	    1.10000	    0.90000;
	35453	 1	 0.0	 0.0	 0.0	 0.0	 1	    1.00000	    0.00000	 138.0	 1	    1.10000	    0.90000;
	35454	 1	 0.0	 0.0	 0.0	 0.0	 1	    1.00000	    0.00000	 138.0	 1	    1.10000	    0.90000;
...
];

%% generator data
%	bus	Pg	Qg	Qmax	Qmin	Vg	mBase	status	Pmax	Pmin
mpc.gen = [
	35250	 1126.4	 0.0	 378.6	 -378.6	 1.0	 100.0	 1	 1152.0	 1100.8;
	35250	 1127.5	 0.0	 455.3	 -455.3	 1.0	 100.0	 1	 1152.0	 1103.0;
	35250	 1045.0	 0.0	 470.3	 -470.3	 1.0	 100.0	 1	 1190.0	 900.0;
	35251	 569.1	 127.2	 550.5	 -296.1	 1.0	 100.0	 1	 888.2	 250.0;
	35251	 569.1	 127.2	 550.5	 -296.1	 1.0	 100.0	 1	 888.2	 250.0;
	35252	 502.75	 101.0	 437.2	 -235.2	 1.0	 100.0	 1	 705.5	 300.0;
	35252	 502.75	 101.0	 437.2	 -235.2	 1.0	 100.0	 1	 705.5	 300.0;
	35252	 502.75	 101.0	 437.2	 -235.2	 1.0	 100.0	 1	 705.5	 300.0;
	35252	 502.75	 101.0	 437.2	 -235.2	 1.0	 100.0	 1	 705.5	 300.0;
	35254	 301.85	 57.8	 250.2	 -134.6	 1.0	 100.0	 1	 403.7	 200.0;
	35254	 137.05	 24.35	 105.4	 -56.7	 1.0	 100.0	 1	 170.1	 104.0;
	35254	 137.05	 24.35	 105.4	 -56.7	 1.0	 100.0	 1	 170.1	 104.0;
	35254	 128.55	 24.35	 105.4	 -56.7	 1.0	 100.0	 1	 170.1	 87.0;
	35254	 124.55	 24.35	 105.4	 -56.7	 1.0	 100.0	 1	 170.1	 79.0;
	35254	 626.9	 113.0	 488.9	 -262.9	 1.0	 100.0	 1	 788.8	 465.0;
	35254	 201.0	 38.95	 168.6	 -90.7	 1.0	 100.0	 1	 272.0	 130.0;
	35255	 826.0	 136.35	 590.0	 -317.3	 1.0	 100.0	 1	 952.0	 700.0;
	35255	 171.0	 38.95	 168.6	 -90.7	 1.0	 100.0	 1	 272.0	 70.0;
	35255	 171.0	 38.95	 168.6	 -90.7	 1.0	 100.0	 1	 272.0	 70.0;
	35255	 171.0	 38.95	 168.6	 -90.7	 1.0	 100.0	 1	 272.0	 70.0;
	35256	 73.0	 11.45	 49.6	 -26.7	 1.0	 100.0	 1	 80.0	 66.0;
	35256	 189.6	 38.55	 166.8	 -89.7	 1.0	 100.0	 1	 269.2	 110.0;
	35256	 204.6	 42.85	 185.4	 -99.7	 1.0	 100.0	 1	 299.2	 110.0;
	35256	 73.0	 11.45	 49.6	 -26.7	 1.0	 100.0	 1	 80.0	 66.0;
	35256	 73.0	 11.45	 49.6	 -26.7	 1.0	 100.0	 1	 80.0	 66.0;
	35256	 73.0	 11.45	 49.6	 -26.7	 1.0	 100.0	 1	 80.0	 66.0;
	35256	 73.0	 11.45	 49.6	 -26.7	 1.0	 100.0	 1	 80.0	 66.0;
	35256	 73.0	 11.45	 49.6	 -26.7	 1.0	 100.0	 1	 80.0	 66.0;
	35256	 73.0	 11.45	 49.6	 -26.7	 1.0	 100.0	 1	 80.0	 66.0;
	35256	 73.0	 11.45	 49.6	 -26.7	 1.0	 100.0	 1	 80.0	 66.0;
	35256	 73.0	 11.45	 49.6	 -26.7	 1.0	 100.0	 1	 80.0	 66.0;
	35257	 216.7	 37.0	 160.1	 -86.1	 1.0	 100.0	 1	 258.4	 175.0;
	35257	 216.7	 37.0	 160.1	 -86.1	 1.0	 100.0	 1	 258.4	 175.0;
	35257	 200.5	 43.8	 189.6	 -102.0	 1.0	 100.0	 1	 306.0	 95.0;
	35264	 146.8615	 26.5	 114.7	 -61.7	 1.0	 100.0	 1	 185.0	 108.723;
	35264	 146.7855	 26.5	 114.7	 -61.7	 1.0	 100.0	 1	 185.0	 108.571;
	35264	 141.525	 26.5	 114.7	 -61.7	 1.0	 100.0	 1	 185.0	 98.05;
	35264	 141.525	 26.5	 114.7	 -61.7	 1.0	 100.0	 1	 185.0	 98.05;
	35264	 197.4	 21.3	 136.6	 -94.0	 1.0	 100.0	 1	 282.0	 112.8;
	35264	 197.4	 21.3	 136.6	 -94.0	 1.0	 100.0	 1	 282.0	 112.8;
	35265	 136.55	 13.85	 88.7	 -61.0	 1.0	 100.0	 1	 183.1	 90.0;
	35265	 136.55	 13.85	 88.7	 -61.0	 1.0	 100.0	 1	 183.1	 90.0;
	35265	 136.55	 13.85	 88.7	 -61.0	 1.0	 100.0	 1	 183.1	 90.0;
	35265	 212.55	 29.45	 188.9	 -130.0	 1.0	 100.0	 1	 390.1	 35.0;
	35266	 134.5	 13.5	 86.7	 -59.7	 1.0	 100.0	 1	 179.0	 90.0;
	35266	 134.5	 13.5	 86.7	 -59.7	 1.0	 100.0	 1	 179.0	 90.0;
	35266	 134.5	 13.5	 86.7	 -59.7	 1.0	 100.0	 1	 179.0	 90.0;
	35266	 225.05	 29.45	 188.9	 -130.0	 1.0	 100.0	 1	 390.1	 60.0;
	35272	 45.25	 6.8	 43.8	 -30.2	 1.0	 100.0	 1	 90.5	 0.0;
	35272	 45.25	 6.8	 43.8	 -30.2	 1.0	 100.0	 1	 90.5	 0.0;
	35275	 37.5	 10.05	 45.1	 -25.0	 1.0	 100.0	 1	 75.0	 0.0;
	35275	 37.5	 10.05	 45.1	 -25.0	 1.0	 100.0	 1	 75.0	 0.0;
	35275	 37.5	 10.05	 45.1	 -25.0	 1.0	 100.0	 1	 75.0	 0.0;
	35277	 33.75	 5.1	 32.7	 -22.5	 1.0	 100.0	 1	 67.5	 0.0;
	35277	 33.75	 5.1	 32.7	 -22.5	 1.0	 100.0	 1	 67.5	 0.0;
	35279	 37.1	 4.45	 27.3	 -18.4	 1.0	 100.0	 1	 55.2	 19.0;
	35279	 27.6	 5.5	 23.7	 -12.7	 1.0	 100.0	 1	 38.2	 17.0;
	35280	 26.95	 0.0	 23.0	 -23.0	 1.0	 100.0	 1	 53.9	 0.0;
	35281	 50.75	 3.85	 24.9	 -17.2	 1.0	 100.0	 1	 51.5	 50.0;
	35281	 50.75	 3.85	 24.9	 -17.2	 1.0	 100.0	 1	 51.5	 50.0;
	35285	 23.45	 4.2	 24.0	 -15.6	 1.0	 100.0	 1	 46.9	 0.0;
	35287	 9.15	 2.5	 9.533	 -4.533	 1.0	 100.0	 1	 13.633	 4.667;
	35288	 20.25	 0.0	 13.3	 -13.3	 1.0	 100.0	 1	 40.5	 0.0;
	35288	 20.25	 0.0	 13.3	 -13.3	 1.0	 100.0	 1	 40.5	 0.0;
	35290	 3.2165	 0.9835	 4.117	 -2.15	 1.0	 100.0	 1	 6.433	 0.0;
	35290	 3.2165	 0.9835	 4.117	 -2.15	 1.0	 100.0	 1	 6.433	 0.0;
	35290	 3.2165	 0.9835	 4.117	 -2.15	 1.0	 100.0	 1	 6.433	 0.0;
	35290	 3.2165	 0.9835	 4.117	 -2.15	 1.0	 100.0	 1	 6.433	 0.0;
	35290	 3.2165	 0.9835	 4.117	 -2.15	 1.0	 100.0	 1	 6.433	 0.0;
	35294	 16.85	 0.0	 11.1	 -11.1	 1.0	 100.0	 1	 33.7	 0.0;
	35294	 16.85	 0.0	 11.1	 -11.1	 1.0	 100.0	 1	 33.7	 0.0;
	35294	 16.85	 0.0	 11.1	 -11.1	 1.0	 100.0	 1	 33.7	 0.0;
	35297	 14.6	 2.2	 14.1	 -9.7	 1.0	 100.0	 1	 29.2	 0.0;
	35297	 14.6	 2.2	 14.1	 -9.7	 1.0	 100.0	 1	 29.2	 0.0;
	35297	 14.6	 2.2	 14.1	 -9.7	 1.0	 100.0	 1	 29.2	 0.0;
	35298	 14.4	 2.15	 13.9	 -9.6	 1.0	 100.0	 1	 28.8	 0.0;
	35298	 14.4	 2.15	 13.9	 -9.6	 1.0	 100.0	 1	 28.8	 0.0;
	35298	 14.4	 2.15	 13.9	 -9.6	 1.0	 100.0	 1	 28.8	 0.0;
	35298	 14.4	 2.15	 13.9	 -9.6	 1.0	 100.0	 1	 28.8	 0.0;
	35300	 12.5	 3.2	 14.7	 -8.3	 1.0	 100.0	 1	 25.0	 0.0;
	35300	 12.5	 3.2	 14.7	 -8.3	 1.0	 100.0	 1	 25.0	 0.0;
	35300	 12.5	 3.2	 14.7	 -8.3	 1.0	 100.0	 1	 25.0	 0.0;
	35300	 12.5	 3.2	 14.7	 -8.3	 1.0	 100.0	 1	 25.0	 0.0;
	35301	 12.5	 0.0	 12.0	 -12.0	 1.0	 100.0	 1	 25.0	 0.0;
	35301	 12.75	 0.0	 12.3	 -12.3	 1.0	 100.0	 1	 25.5	 0.0;
	35302	 19.0	 3.6	 15.5	 -8.3	 1.0	 100.0	 1	 25.0	 13.0;
	35308	 606.0	 58.3	 373.9	 -257.3	 1.0	 100.0	 1	 772.0	 440.0;
	35311	 356.95	 42.05	 269.7	 -185.6	 1.0	 100.0	 1	 556.9	 157.0;
	35311	 355.65	 42.0	 269.4	 -185.4	 1.0	 100.0	 1	 556.3	 155.0;
	35311	 354.6	 42.0	 269.4	 -185.4	 1.0	 100.0	 1	 556.2	 153.0;
	35311	 353.25	 42.0	 269.5	 -185.5	 1.0	 100.0	 1	 556.5	 150.0;
	35323	 126.6	 23.35	 101.1	 -54.4	 1.0	 100.0	 1	 163.2	 90.0;
	35323	 216.05	 21.3	 136.6	 -94.0	 1.0	 100.0	 1	 282.1	 150.0;
	35330	 5.325	 0.8125	 5.175	 -3.55	 1.0	 100.0	 1	 10.65	 0.0;
	35330	 5.325	 0.8125	 5.175	 -3.55	 1.0	 100.0	 1	 10.65	 0.0;
	35330	 5.325	 0.8125	 5.175	 -3.55	 1.0	 100.0	 1	 10.65	 0.0;
	35330	 5.325	 0.8125	 5.175	 -3.55	 1.0	 100.0	 1	 10.65	 0.0;
	35330	 5.325	 0.8125	 5.175	 -3.55	 1.0	 100.0	 1	 10.65	 0.0;
	35331	 75.3	 16.25	 70.4	 -37.9	 1.0	 100.0	 1	 113.6	 37.0;
	35333	 35.0	 5.3	 33.9	 -23.3	 1.0	 100.0	 1	 70.0	 0.0;
	35334	 37.5	 8.6	 37.2	 -20.0	 1.0	 100.0	 1	 60.0	 15.0;
	35334	 37.5	 8.6	 37.2	 -20.0	 1.0	 100.0	 1	 60.0	 15.0;
	35335	 22.5	 3.4	 21.8	 -15.0	 1.0	 100.0	 1	 45.0	 0.0;
	35335	 22.5	 3.4	 21.8	 -15.0	 1.0	 100.0	 1	 45.0	 0.0;
	35335	 22.5	 3.4	 21.8	 -15.0	 1.0	 100.0	 1	 45.0	 0.0;
	35335	 22.5	 3.4	 21.8	 -15.0	 1.0	 100.0	 1	 45.0	 0.0;
	35335	 22.5	 3.4	 21.8	 -15.0	 1.0	 100.0	 1	 45.0	 0.0;
	35336	 21.2	 0.0	 18.1	 -18.1	 1.0	 100.0	 1	 42.4	 0.0;
	35336	 21.2	 0.0	 18.1	 -18.1	 1.0	 100.0	 1	 42.4	 0.0;
	35336	 22.3	 0.0	 19.0	 -19.0	 1.0	 100.0	 1	 44.6	 0.0;
	35336	 22.3	 0.0	 19.0	 -19.0	 1.0	 100.0	 1	 44.6	 0.0;
	35336	 22.3	 0.0	 19.0	 -19.0	 1.0	 100.0	 1	 44.6	 0.0;
	35337	 27.8	 4.65	 20.2	 -10.9	 1.0	 100.0	 1	 32.6	 23.0;
	35343	 750.0	 108.7	 697.4	 -480.0	 1.0	 100.0	 1	 1200.0	 300.0;
	35345	 147.75	 26.6	 115.0	 -61.8	 1.0	 100.0	 1	 185.5	 110.0;
	35345	 147.75	 26.6	 115.0	 -61.8	 1.0	 100.0	 1	 185.5	 110.0;
	35345	 147.75	 26.6	 115.0	 -61.8	 1.0	 100.0	 1	 185.5	 110.0;
	35345	 147.75	 26.6	 115.0	 -61.8	 1.0	 100.0	 1	 185.5	 110.0;
	35345	 356.65	 78.5	 339.8	 -182.8	 1.0	 100.0	 1	 548.3	 165.0;
	35345	 356.65	 78.5	 339.8	 -182.8	 1.0	 100.0	 1	 548.3	 165.0;
	35347	 431.85	 38.8	 248.8	 -171.2	 1.0	 100.0	 1	 513.7	 350.0;
	35348	 135.45	 0.0	 0.0	 0.0	 1.0	 100.0	 1	 270.0	 0.9;
	35348	 135.45	 0.0	 0.0	 0.0	 1.0	 100.0	 1	 270.0	 0.9;
	35348	 155.7	 0.0	 0.0	 0.0	 1.0	 100.0	 1	 310.5	 0.9;
	35349	 127.5	 28.6	 123.9	 -66.7	 1.0	 100.0	 1	 200.0	 55.0;
	35349	 127.5	 28.6	 123.9	 -66.7	 1.0	 100.0	 1	 200.0	 55.0;
	35350	 149.75	 13.95	 89.4	 -61.5	 1.0	 100.0	 1	 184.5	 115.0;
	35350	 149.75	 13.95	 89.4	 -61.5	 1.0	 100.0	 1	 184.5	 115.0;
	35350	 149.75	 13.95	 89.4	 -61.5	 1.0	 100.0	 1	 184.5	 115.0;
	35351	 154.2	 13.5	 86.8	 -59.8	 1.0	 100.0	 1	 179.3	 129.1;
	35351	 154.2	 13.5	 86.8	 -59.8	 1.0	 100.0	 1	 179.3	 129.1;
	35351	 154.2	 13.5	 86.8	 -59.8	 1.0	 100.0	 1	 179.3	 129.1;
	35352	 144.5	 25.6	 110.9	 -59.7	 1.0	 100.0	 1	 179.0	 110.0;
	35352	 144.5	 25.6	 110.9	 -59.7	 1.0	 100.0	 1	 179.0	 110.0;
	35352	 144.5	 25.6	 110.9	 -59.7	 1.0	 100.0	 1	 179.0	 110.0;
	35353	 130.45	 13.5	 86.5	 -59.5	 1.0	 100.0	 1	 178.5	 82.4;
	35353	 130.45	 13.5	 86.5	 -59.5	 1.0	 100.0	 1	 178.5	 82.4;
	35353	 130.45	 13.5	 86.5	 -59.5	 1.0	 100.0	 1	 178.5	 82.4;
	35353	 111.8	 11.8	 75.6	 -52.0	 1.0	 100.0	 1	 156.0	 67.6;
	35353	 111.8	 11.8	 75.6	 -52.0	 1.0	 100.0	 1	 156.0	 67.6;
	35353	 111.8	 11.8	 75.6	 -52.0	 1.0	 100.0	 1	 156.0	 67.6;
	35354	 133.3	 25.25	 109.4	 -58.9	 1.0	 100.0	 1	 176.6	 90.0;
	35354	 133.3	 25.25	 109.4	 -58.9	 1.0	 100.0	 1	 176.6	 90.0;
	35355	 135.8	 25.25	 109.4	 -58.9	 1.0	 100.0	 1	 176.6	 95.0;
	35355	 135.8	 25.25	 109.4	 -58.9	 1.0	 100.0	 1	 176.6	 95.0;
	35356	 85.65	 14.5	 62.8	 -33.8	 1.0	 100.0	 1	 101.3	 70.0;
	35357	 146.15	 12.15	 78.0	 -53.7	 1.0	 100.0	 1	 161.0	 131.3;
	35357	 146.15	 12.15	 78.0	 -53.7	 1.0	 100.0	 1	 161.0	 131.3;
	35357	 146.15	 12.15	 78.0	 -53.7	 1.0	 100.0	 1	 161.0	 131.3;
	35360	 68.25	 11.95	 51.7	 -27.8	 1.0	 100.0	 1	 83.5	 53.0;
	35360	 68.25	 11.95	 51.7	 -27.8	 1.0	 100.0	 1	 83.5	 53.0;
	35360	 68.25	 11.95	 51.7	 -27.8	 1.0	 100.0	 1	 83.5	 53.0;
	35366	 35.5	 6.7	 29.1	 -15.7	 1.0	 100.0	 1	 47.0	 24.0;
	35366	 35.5	 6.7	 29.1	 -15.7	 1.0	 100.0	 1	 47.0	 24.0;
	35366	 35.5	 6.7	 29.1	 -15.7	 1.0	 100.0	 1	 47.0	 24.0;
	35368	 31.45	 3.15	 20.3	 -14.0	 1.0	 100.0	 1	 41.9	 21.0;
	35370	 10.775	 2.6	 10.9	 -5.7	 1.0	 100.0	 1	 17.05	 4.5;
	35370	 10.775	 2.6	 10.9	 -5.7	 1.0	 100.0	 1	 17.05	 4.5;
	35387	 125.8	 13.1	 84.0	 -57.8	 1.0	 100.0	 1	 173.4	 78.2;
	35387	 177.2	 19.45	 124.8	 -85.9	 1.0	 100.0	 1	 257.6	 96.8;
	35387	 125.8	 13.1	 84.0	 -57.8	 1.0	 100.0	 1	 173.4	 78.2;
	35394	 26.1	 10.9	 39.2	 -17.4	 1.0	 100.0	 1	 52.2	 0.0;
	35394	 26.1	 10.9	 39.2	 -17.4	 1.0	 100.0	 1	 52.2	 0.0;
	35394	 26.1	 10.9	 39.2	 -17.4	 1.0	 100.0	 1	 52.2	 0.0;
	35396	 8.3	 3.467	 12.467	 -5.533	 1.0	 100.0	 1	 16.6	 0.0;
	35396	 8.3	 3.467	 12.467	 -5.533	 1.0	 100.0	 1	 16.6	 0.0;
	35396	 8.3	 3.467	 12.467	 -5.533	 1.0	 100.0	 1	 16.6	 0.0;
	35397	 22.5	 3.4	 21.8	 -15.0	 1.0	 100.0	 1	 45.0	 0.0;
	35398	 22.5	 3.4	 21.8	 -15.0	 1.0	 100.0	 1	 45.0	 0.0;
	35398	 22.5	 3.4	 21.8	 -15.0	 1.0	 100.0	 1	 45.0	 0.0;
	35398	 22.5	 3.4	 21.8	 -15.0	 1.0	 100.0	 1	 45.0	 0.0;
	35399	 20.7	 3.15	 20.1	 -13.8	 1.0	 100.0	 1	 41.4	 0.0;
	35399	 26.1	 3.95	 25.3	 -17.4	 1.0	 100.0	 1	 52.2	 0.0;
	35401	 19.95	 0.0	 13.1	 -13.1	 1.0	 100.0	 1	 39.9	 0.0;
	35401	 19.95	 0.0	 13.1	 -13.1	 1.0	 100.0	 1	 39.9	 0.0;
	35401	 19.95	 0.0	 13.1	 -13.1	 1.0	 100.0	 1	 39.9	 0.0;
	35401	 19.95	 0.0	 13.1	 -13.1	 1.0	 100.0	 1	 39.9	 0.0;
	35403	 6.0	 0.9	 5.8	 -4.0	 1.0	 100.0	 1	 12.0	 0.0;
	35403	 6.0	 0.9	 5.8	 -4.0	 1.0	 100.0	 1	 12.0	 0.0;
	35403	 6.0	 0.9	 5.8	 -4.0	 1.0	 100.0	 1	 12.0	 0.0;
	35406	 8.425	 1.925	 9.45	 -5.6	 1.0	 100.0	 1	 16.85	 0.0;
	35406	 8.425	 1.925	 9.45	 -5.6	 1.0	 100.0	 1	 16.85	 0.0;
	35408	 16.65	 2.5	 16.1	 -11.1	 1.0	 100.0	 1	 33.3	 0.0;
	35408	 16.65	 2.5	 16.1	 -11.1	 1.0	 100.0	 1	 33.3	 0.0;
	35408	 16.65	 2.5	 16.1	 -11.1	 1.0	 100.0	 1	 33.3	 0.0;
	35409	 16.2	 2.45	 15.7	 -10.8	 1.0	 100.0	 1	 32.4	 0.0;
	35409	 16.7	 2.55	 16.2	 -11.1	 1.0	 100.0	 1	 33.4	 0.0;
	35409	 17.3	 2.65	 16.8	 -11.5	 1.0	 100.0	 1	 34.6	 0.0;
	35409	 17.3	 2.65	 16.8	 -11.5	 1.0	 100.0	 1	 34.6	 0.0;
	35410	 15.75	 2.4	 15.3	 -10.5	 1.0	 100.0	 1	 31.5	 0.0;
	35410	 18.25	 2.75	 17.7	 -12.2	 1.0	 100.0	 1	 36.5	 0.0;
	35410	 20.7	 3.15	 20.1	 -13.8	 1.0	 100.0	 1	 41.4	 0.0;
	35410	 20.7	 3.15	 20.1	 -13.8	 1.0	 100.0	 1	 41.4	 0.0;
	35412	 14.8	 0.0	 9.7	 -9.7	 1.0	 100.0	 1	 29.6	 0.0;
	35412	 19.0	 0.0	 12.5	 -12.5	 1.0	 100.0	 1	 38.0	 0.0;
	35412	 19.15	 0.0	 12.6	 -12.6	 1.0	 100.0	 1	 38.3	 0.0;
	35413	 14.4	 2.15	 13.9	 -9.6	 1.0	 100.0	 1	 28.8	 0.0;
	35415	 14.0	 2.15	 13.6	 -9.3	 1.0	 100.0	 1	 28.0	 0.0;
	35416	 2.349	 0.0	 10.7	 -10.7	 1.0	 100.0	 1	 4.698	 0.0;
	35417	 12.5	 3.6	 15.5	 -8.3	 1.0	 100.0	 1	 25.0	 0.0;
...
];

%% generator cost data
%	2	startup	shutdown	n	c(n-1)	...	c0
mpc.gencost = [
	2	 0.0	 0.0	 3	   0.000000	   2.384000	 -127.700000;
	2	 0.0	 0.0	 3	   0.000000	   2.517000	 -127.900000;
	2	 0.0	 0.0	 3	   0.000000	   2.463000	 -112.900000;
	2	 0.0	 0.0	 3	   0.000000	   2.281000	 -33.760000;
	2	 0.0	 0.0	 3	   0.000000	   2.386000	 -33.760000;
	2	 0.0	 0.0	 3	   0.001729	  14.430000	   0.000000;
	2	 0.0	 0.0	 3	   0.001729	  13.910000	   0.000000;
	2	 0.0	 0.0	 3	   0.001729	  13.710000	   0.000000;
	2	 0.0	 0.0	 3	   0.001729	  13.690000	   0.000000;
	2	 0.0	 0.0	 3	   0.000000	  15.220000	 -330.900000;
	2	 0.0	 0.0	 3	   0.000000	  19.490000	 -640.400000;
	2	 0.0	 0.0	 3	   0.000000	  20.020000	 -640.400000;
	2	 0.0	 0.0	 3	   0.032260	  10.950000	  -4.868000;
	2	 0.0	 0.0	 3	   0.032280	  10.900000	  -4.254000;
	2	 0.0	 0.0	 3	   0.001777	  13.370000	  -1.542000;
	2	 0.0	 0.0	 3	   0.000000	  16.900000	 -213.800000;
	2	 0.0	 0.0	 3	   0.000000	  15.730000	 -1064.000000;
	2	 0.0	 0.0	 3	   0.004972	  14.900000	   0.000000;
	2	 0.0	 0.0	 3	   0.004972	  14.420000	   0.000000;
	2	 0.0	 0.0	 3	   0.004972	  15.070000	   0.000000;
	2	 0.0	 0.0	 3	   0.000000	  18.900000	 -39.100000;
	2	 0.0	 0.0	 3	   0.000000	  16.340000	 -190.900000;
	2	 0.0	 0.0	 3	   0.000000	  17.030000	 -201.300000;
	2	 0.0	 0.0	 3	   0.000000	  18.990000	 -39.100000;
	2	 0.0	 0.0	 3	   0.000000	  18.700000	 -39.100000;
	2	 0.0	 0.0	 3	   0.000000	  19.080000	 -39.100000;
	2	 0.0	 0.0	 3	   0.000000	  19.540000	 -39.100000;
	2	 0.0	 0.0	 3	   0.000000	  19.350000	 -39.100000;
	2	 0.0	 0.0	 3	   0.000000	  19.360000	 -39.100000;
	2	 0.0	 0.0	 3	   0.000000	  18.940000	 -39.100000;
	2	 0.0	 0.0	 3	   0.000000	  19.780000	 -39.100000;
	2	 0.0	 0.0	 3	   0.026260	  11.910000	 -10.450000;
	2	 0.0	 0.0	 3	   0.026260	  11.880000	 -10.450000;
	2	 0.0	 0.0	 3	   0.026380	  12.330000	  -4.156000;
	2	 0.0	 0.0	 3	   0.032230	   9.660000	  -6.705000;
	2	 0.0	 0.0	 3	   0.032230	  10.050000	  -6.687000;
	2	 0.0	 0.0	 3	   0.032270	   9.882000	  -5.586000;
	2	 0.0	 0.0	 3	   0.032270	   9.801000	  -5.586000;
	2	 0.0	 0.0	 3	   0.026360	  11.440000	  -4.796000;
	2	 0.0	 0.0	 3	   0.026360	  11.310000	  -4.796000;
	2	 0.0	 0.0	 3	   0.032280	  10.680000	  -4.937000;
	2	 0.0	 0.0	 3	   0.032280	  10.610000	  -4.937000;
	2	 0.0	 0.0	 3	   0.032280	  10.100000	  -4.937000;
	2	 0.0	 0.0	 3	   0.009369	  13.780000	  -1.130000;
	2	 0.0	 0.0	 3	   0.032270	  10.420000	  -4.989000;
	2	 0.0	 0.0	 3	   0.032270	  10.140000	  -4.989000;
	2	 0.0	 0.0	 3	   0.032270	  10.340000	  -4.989000;
	2	 0.0	 0.0	 3	   0.009368	  14.330000	  -1.304000;
	2	 0.0	 0.0	 3	   0.099310	   0.195000	   0.000000;
	2	 0.0	 0.0	 3	   0.099310	   0.185500	   0.000000;
	2	 0.0	 0.0	 3	   0.099160	   0.188500	   0.000000;
	2	 0.0	 0.0	 3	   0.099160	   0.185200	   0.000000;
	2	 0.0	 0.0	 3	   0.099160	   0.193000	   0.000000;
	2	 0.0	 0.0	 3	   0.099070	   0.192700	   0.000000;
	2	 0.0	 0.0	 3	   0.099070	   0.189000	   0.000000;
	2	 0.0	 0.0	 3	   0.000000	  19.510000	 -77.060000;
	2	 0.0	 0.0	 3	   0.000000	  18.390000	 -42.850000;
	2	 0.0	 0.0	 3	   0.098820	   0.193400	   0.000000;
	2	 0.0	 0.0	 3	   0.000000	   0.005882	   0.000000;
	2	 0.0	 0.0	 3	   0.000000	   0.005882	   0.000000;
	2	 0.0	 0.0	 3	   0.098640	   0.187000	   0.000000;
	2	 0.0	 0.0	 3	   0.000000	  37.070000	  -7.176000;
	2	 0.0	 0.0	 3	   0.098410	   0.196400	   0.000000;
	2	 0.0	 0.0	 3	   0.098410	   0.187300	   0.000000;
	2	 0.0	 0.0	 3	   0.000000	   0.849400	   0.000000;
	2	 0.0	 0.0	 3	   0.000000	   0.844400	   0.000000;
	2	 0.0	 0.0	 3	   0.000000	   0.851300	   0.000000;
	2	 0.0	 0.0	 3	   0.000000	   0.852000	   0.000000;
	2	 0.0	 0.0	 3	   0.000000	   0.846900	   0.000000;
	2	 0.0	 0.0	 3	   0.000000	   3.982000	   0.000000;
	2	 0.0	 0.0	 3	   0.000000	   3.985000	   0.000000;
	2	 0.0	 0.0	 3	   0.000000	   3.978000	   0.000000;
	2	 0.0	 0.0	 3	   0.000000	   3.462000	   0.000000;
	2	 0.0	 0.0	 3	   0.000000	   3.461000	   0.000000;
	2	 0.0	 0.0	 3	   0.000000	   3.463000	   0.000000;
	2	 0.0	 0.0	 3	   0.000000	   3.415000	   0.000000;
	2	 0.0	 0.0	 3	   0.000000	   3.419000	   0.000000;
	2	 0.0	 0.0	 3	   0.000000	   3.416000	   0.000000;
	2	 0.0	 0.0	 3	   0.000000	   3.422000	   0.000000;
	2	 0.0	 0.0	 3	   0.000000	   2.979000	   0.000000;
	2	 0.0	 0.0	 3	   0.000000	   2.977000	   0.000000;
	2	 0.0	 0.0	 3	   0.000000	   2.981000	   0.000000;
	2	 0.0	 0.0	 3	   0.000000	   2.980000	   0.000000;
	2	 0.0	 0.0	 3	   0.000000	   2.977000	   0.000000;
	2	 0.0	 0.0	 3	   0.000000	   3.032000	   0.000000;
	2	 0.0	 0.0	 3	   0.000000	  16.070000	  -9.875000;
	2	 0.0	 0.0	 3	   0.001771	  13.080000	  -1.413000;
	2	 0.0	 0.0	 3	   0.001891	  13.650000	   0.000000;
	2	 0.0	 0.0	 3	   0.001893	  14.780000	   0.000000;
	2	 0.0	 0.0	 3	   0.001904	  14.360000	   0.000000;
	2	 0.0	 0.0	 3	   0.001891	  13.590000	   0.000000;
	2	 0.0	 0.0	 3	   0.000000	  16.850000	 -140.300000;
	2	 0.0	 0.0	 3	   0.000000	  16.340000	 -235.800000;
	2	 0.0	 0.0	 3	   0.000000	   1.330000	   0.000000;
	2	 0.0	 0.0	 3	   0.000000	   1.336000	   0.000000;
	2	 0.0	 0.0	 3	   0.000000	   1.330000	   0.000000;
	2	 0.0	 0.0	 3	   0.000000	   1.330000	   0.000000;
	2	 0.0	 0.0	 3	   0.000000	   1.331000	   0.000000;
	2	 0.0	 0.0	 3	   0.000000	  17.410000	 -74.490000;
	2	 0.0	 0.0	 3	   0.099100	   0.190400	   0.000000;
	2	 0.0	 0.0	 3	   0.000000	  16.140000	 -37.780000;
	2	 0.0	 0.0	 3	   0.000000	  16.730000	 -37.780000;
	2	 0.0	 0.0	 3	   0.098580	   0.190300	   0.000000;
	2	 0.0	 0.0	 3	   0.098580	   0.187800	   0.000000;
	2	 0.0	 0.0	 3	   0.098580	   0.187800	   0.000000;
	2	 0.0	 0.0	 3	   0.098580	   0.186900	   0.000000;
	2	 0.0	 0.0	 3	   0.098580	   0.189100	   0.000000;
	2	 0.0	 0.0	 3	   0.098490	   0.185700	   0.000000;
	2	 0.0	 0.0	 3	   0.098490	   0.181100	   0.000000;
	2	 0.0	 0.0	 3	   0.098560	   0.179100	   0.000000;
	2	 0.0	 0.0	 3	   0.098560	   0.179900	   0.000000;
	2	 0.0	 0.0	 3	   0.098560	   0.186700	   0.000000;
	2	 0.0	 0.0	 3	   0.000000	  14.850000	 -20.840000;
	2	 0.0	 0.0	 3	   0.000000	   2.419000	 -58.270000;
	2	 0.0	 0.0	 3	   0.032230	   9.868000	  -6.842000;
	2	 0.0	 0.0	 3	   0.032230	   9.978000	  -6.842000;
	2	 0.0	 0.0	 3	   0.032230	  10.390000	  -6.842000;
	2	 0.0	 0.0	 3	   0.032230	   9.828000	  -6.842000;
	2	 0.0	 0.0	 3	   0.001961	  14.040000	   0.000000;
	2	 0.0	 0.0	 3	   0.001961	  13.420000	   0.000000;
	2	 0.0	 0.0	 3	   0.000000	  15.580000	 -438.800000;
	2	 0.0	 0.0	 3	   0.026400	  11.800000	  -1.823000;
	2	 0.0	 0.0	 3	   0.026400	  11.470000	  -1.823000;
	2	 0.0	 0.0	 3	   0.026400	  11.410000	  -2.093000;
	2	 0.0	 0.0	 3	   0.000000	  15.780000	 -111.400000;
	2	 0.0	 0.0	 3	   0.000000	  16.730000	 -111.400000;
	2	 0.0	 0.0	 3	   0.000000	  19.860000	 -763.900000;
	2	 0.0	 0.0	 3	   0.000000	  20.240000	 -763.900000;
	2	 0.0	 0.0	 3	   0.000000	  19.730000	 -763.900000;
	2	 0.0	 0.0	 3	   0.000000	  21.900000	 -944.300000;
	2	 0.0	 0.0	 3	   0.000000	  21.250000	 -919.600000;
	2	 0.0	 0.0	 3	   0.000000	  20.720000	 -894.900000;
	2	 0.0	 0.0	 3	   0.000000	  20.030000	 -711.700000;
	2	 0.0	 0.0	 3	   0.000000	  20.000000	 -711.700000;
	2	 0.0	 0.0	 3	   0.000000	  19.420000	 -711.700000;
	2	 0.0	 0.0	 3	   0.032290	  10.220000	  -4.425000;
	2	 0.0	 0.0	 3	   0.032290	   9.728000	  -4.425000;
	2	 0.0	 0.0	 3	   0.032290	   9.428000	  -4.425000;
	2	 0.0	 0.0	 3	   0.032270	   9.929000	  -3.588000;
	2	 0.0	 0.0	 3	   0.032270	   9.897000	  -3.588000;
	2	 0.0	 0.0	 3	   0.032270	   9.909000	  -3.588000;
	2	 0.0	 0.0	 3	   0.032270	  10.500000	  -5.023000;
	2	 0.0	 0.0	 3	   0.032270	   9.822000	  -5.023000;
	2	 0.0	 0.0	 3	   0.032250	  10.750000	  -5.469000;
	2	 0.0	 0.0	 3	   0.032250	  10.090000	  -5.469000;
	2	 0.0	 0.0	 3	   0.000000	  19.310000	 -54.680000;
	2	 0.0	 0.0	 3	   0.000000	  19.280000	 -712.500000;
	2	 0.0	 0.0	 3	   0.000000	  19.790000	 -712.500000;
	2	 0.0	 0.0	 3	   0.000000	  19.400000	 -712.500000;
	2	 0.0	 0.0	 3	   0.000000	  19.080000	 -34.910000;
	2	 0.0	 0.0	 3	   0.000000	  18.560000	 -34.910000;
	2	 0.0	 0.0	 3	   0.000000	  18.970000	 -34.910000;
	2	 0.0	 0.0	 3	   0.000000	  15.350000	 -34.480000;
	2	 0.0	 0.0	 3	   0.000000	  16.510000	 -34.480000;
	2	 0.0	 0.0	 3	   0.000000	  16.100000	 -34.480000;
	2	 0.0	 0.0	 3	   0.000000	  16.150000	 -27.070000;
	2	 0.0	 0.0	 3	   0.000000	  17.040000	  -6.425000;
	2	 0.0	 0.0	 3	   0.000000	  16.590000	  -6.425000;
	2	 0.0	 0.0	 3	   0.035020	   9.636000	  -4.530000;
	2	 0.0	 0.0	 3	   0.026350	  11.010000	  -4.120000;
	2	 0.0	 0.0	 3	   0.032290	  10.270000	  -4.176000;
	2	 0.0	 0.0	 3	   0.098780	   0.184500	   0.000000;
	2	 0.0	 0.0	 3	   0.098780	   0.184000	   0.000000;
	2	 0.0	 0.0	 3	   0.098780	   0.187100	   0.000000;
	2	 0.0	 0.0	 3	   0.000000	   2.010000	   0.000000;
	2	 0.0	 0.0	 3	   0.000000	   2.013000	   0.000000;
	2	 0.0	 0.0	 3	   0.000000	   2.013000	   0.000000;
	2	 0.0	 0.0	 3	   0.098580	   0.193800	   0.000000;
	2	 0.0	 0.0	 3	   0.098580	   0.189300	   0.000000;
	2	 0.0	 0.0	 3	   0.098580	   0.194500	   0.000000;
	2	 0.0	 0.0	 3	   0.098580	   0.187500	   0.000000;
	2	 0.0	 0.0	 3	   0.098450	   0.190400	   0.000000;
	2	 0.0	 0.0	 3	   0.098780	   0.190300	   0.000000;
	2	 0.0	 0.0	 3	   0.000000	   4.691000	   0.000000;
	2	 0.0	 0.0	 3	   0.000000	   4.693000	   0.000000;
	2	 0.0	 0.0	 3	   0.000000	   4.690000	   0.000000;
	2	 0.0	 0.0	 3	   0.000000	   4.690000	   0.000000;
	2	 0.0	 0.0	 3	   0.000000	   1.492000	   0.000000;
	2	 0.0	 0.0	 3	   0.000000	   1.487000	   0.000000;
	2	 0.0	 0.0	 3	   0.000000	   1.485000	   0.000000;
	2	 0.0	 0.0	 3	   0.000000	   2.043000	   0.000000;
	2	 0.0	 0.0	 3	   0.000000	   2.043000	   0.000000;
	2	 0.0	 0.0	 3	   0.000000	   3.930000	   0.000000;
	2	 0.0	 0.0	 3	   0.000000	   3.938000	   0.000000;
	2	 0.0	 0.0	 3	   0.000000	   3.931000	   0.000000;
	2	 0.0	 0.0	 3	   0.000000	   3.836000	   0.000000;
	2	 0.0	 0.0	 3	   0.000000	   3.946000	   0.000000;
	2	 0.0	 0.0	 3	   0.000000	   4.084000	   0.000000;
	2	 0.0	 0.0	 3	   0.000000	   4.084000	   0.000000;
	2	 0.0	 0.0	 3	   0.000000	   3.725000	   0.000000;
	2	 0.0	 0.0	 3	   0.000000	   4.297000	   0.000000;
	2	 0.0	 0.0	 3	   0.098450	   0.182400	   0.000000;
	2	 0.0	 0.0	 3	   0.098450	   0.180000	   0.000000;
	2	 0.0	 0.0	 3	   0.000000	   3.503000	   0.000000;
	2	 0.0	 0.0	 3	   0.000000	   4.470000	   0.000000;
	2	 0.0	 0.0	 3	   0.000000	   4.505000	   0.000000;
	2	 0.0	 0.0	 3	   0.000000	   3.418000	   0.000000;
	2	 0.0	 0.0	 3	   0.000000	   3.328000	   0.000000;
	2	 0.0	 0.0	 3	   0.000000	   0.002042	   0.000000;
	2	 0.0	 0.0	 3	   0.000000	   2.973000	   0.000000;
...
];

%% branch data
%	fbus	tbus	r	x	b	rateA	rateB	rateC	ratio	angle	status	angmin	angmax
mpc.branch = [
	35250	 35260	 0.00019773	 0.00244293	 0.100707	 1147.0	 1147.0	 1147.0	 0.0	 0.0	 1	 -30.0	 30.0;
	35250	 35293	 0.000426248	 0.00560343	 0.400572	 1813.0	 1813.0	 1813.0	 0.0	 0.0	 1	 -30.0	 30.0;
	35250	 36372	 0.000183924	 0.00300313	 0.131209	 1406.0	 1406.0	 1406.0	 0.0	 0.0	 1	 -30.0	 30.0;
	35251	 35650	 0.00088641	 0.0119996	 1.09115	 2385.0	 2385.0	 2385.0	 0.0	 0.0	 1	 -30.0	 30.0;
	35252	 35934	 0.000169	 0.002758	 0.120496	 2441.0	 2441.0	 2441.0	 0.0	 0.0	 1	 -30.0	 30.0;
	35252	 35953	 0.000557	 0.007121	 0.298118	 2444.0	 2444.0	 2444.0	 0.0	 0.0	 1	 -30.0	 30.0;
	35253	 35612	 0.000437484	 0.00243856	 0.0885225	 669.0	 669.0	 669.0	 0.0	 0.0	 1	 -30.0	 30.0;
	35253	 35619	 0.00122967	 0.00705217	 0.241902	 669.0	 669.0	 669.0	 0.0	 0.0	 1	 -30.0	 30.0;
	35253	 35716	 0.00193582	 0.0274015	 1.17205	 1258.0	 1258.0	 1258.0	 0.0	 0.0	 1	 -30.0	 30.0;
	35254	 35441	 0.000498829	 0.0060975	 0.436053	 1725.0	 1725.0	 1725.0	 0.0	 0.0	 1	 -30.0	 30.0;
	35254	 36253	 8.54675e-05	 0.00158444	 0.146562	 2840.0	 2840.0	 2840.0	 0.0	 0.0	 1	 -30.0	 30.0;
	35254	 36254	 0.000184723	 0.00243486	 0.0958469	 1354.4	 1354.4	 1354.4	 0.0	 0.0	 1	 -30.0	 30.0;
	35255	 35509	 0.00129536	 0.0158753	 1.13968	 1725.0	 1725.0	 1725.0	 0.0	 0.0	 1	 -30.0	 30.0;
	35255	 36439	 0.000144148	 0.00209213	 0.0834739	 1258.0	 1258.0	 1258.0	 0.0	 0.0	 1	 -30.0	 30.0;
	35255	 36483	 0.000127392	 0.00143705	 0.0582023	 1067.0	 1067.0	 1067.0	 0.0	 0.0	 1	 -30.0	 30.0;
	35256	 35555	 0.000976647	 0.0119534	 0.856446	 1725.0	 1725.0	 1725.0	 0.0	 0.0	 1	 -30.0	 30.0;
	35256	 35774	 0.000228901	 0.0037025	 0.160596	 1392.0	 1392.0	 1392.0	 0.0	 0.0	 1	 -30.0	 30.0;
	35257	 35569	 0.00180164	 0.0100484	 0.365076	 669.0	 669.0	 669.0	 0.0	 0.0	 1	 -30.0	 30.0;
	35257	 35570	 0.000500045	 0.00513483	 0.360043	 1590.0	 1590.0	 1590.0	 0.0	 0.0	 1	 -30.0	 30.0;
	35257	 36515	 0.000235638	 0.00133314	 0.046956	 669.0	 669.0	 669.0	 0.0	 0.0	 1	 -30.0	 30.0;
	35257	 36517	 0.00103743	 0.00675988	 0.255763	 744.0	 744.0	 744.0	 0.0	 0.0	 1	 -30.0	 30.0;
	35258	 36190	 0.000498034	 0.00511417	 0.358592	 1590.0	 1590.0	 1590.0	 0.0	 0.0	 1	 -30.0	 30.0;
	35258	 36277	 0.000173999	 0.00212606	 0.151954	 1725.0	 1725.0	 1725.0	 0.0	 0.0	 1	 -30.0	 30.0;
	35258	 36282	 0.000229391	 0.0012786	 0.0464129	 669.0	 669.0	 669.0	 0.0	 0.0	 1	 -30.0	 30.0;
	35259	 36367	 0.000246122	 0.0013363	 0.0115978	 462.0	 462.0	 462.0	 0.0	 0.0	 1	 -30.0	 30.0;
	35259	 76211	 0.000266124	 0.00267741	 0.027643	 708.0	 708.0	 708.0	 0.0	 0.0	 1	 -30.0	 30.0;
	35261	 35267	 0.000159708	 0.00171032	 0.0686064	 1028.0	 1028.0	 1028.0	 0.0	 0.0	 1	 -30.0	 30.0;
	35261	 35509	 0.00276421	 0.0356717	 1.51298	 1177.0	 1177.0	 1177.0	 0.0	 0.0	 1	 -30.0	 30.0;
	35262	 35602	 0.000226205	 0.00255178	 0.103355	 1067.0	 1067.0	 1067.0	 0.0	 0.0	 1	 -30.0	 30.0;
	35262	 35992	 0.000503692	 0.00280765	 0.101922	 669.0	 669.0	 669.0	 0.0	 0.0	 1	 -30.0	 30.0;
	35263	 35512	 0.00277227	 0.0247154	 0.0104424	 351.0	 351.0	 351.0	 0.0	 0.0	 1	 -30.0	 30.0;
	35263	 35515	 0.00793092	 0.0316501	 0.0055725	 203.2	 203.2	 203.2	 0.0	 0.0	 1	 -30.0	 30.0;
	35263	 35529	 0.00184376	 0.0224675	 0.00742698	 386.0	 386.0	 386.0	 0.0	 0.0	 1	 -30.0	 30.0;
	35263	 36493	 0.0104813	 0.0366768	 0.0121555	 159.0	 159.0	 159.0	 0.0	 0.0	 1	 -30.0	 30.0;
	35263	 36501	 0.0325783	 0.0828788	 0.0209772	 118.0	 118.0	 118.0	 0.0	 0.0	 1	 -30.0	 30.0;
	35264	 75682	 0.000359821	 0.0052585	 0.0201474	 1004.6	 1004.6	 1004.6	 0.0	 0.0	 1	 -30.0	 30.0;
	35265	 35266	 1e-05	 6.7e-05	 0.002527	 995.0	 995.0	 995.0	 0.0	 0.0	 1	 -30.0	 30.0;
	35265	 35547	 0.000499488	 0.00703449	 0.298637	 1346.1	 1346.1	 1346.1	 0.0	 0.0	 1	 -30.0	 30.0;
	35266	 35432	 0.001321	 0.007367	 0.267557	 1086.9	 1086.9	 1086.9	 0.0	 0.0	 1	 -30.0	 30.0;
	35266	 35664	 0.001325	 0.00766	 0.280154	 691.0	 691.0	 691.0	 0.0	 0.0	 1	 -30.0	 30.0;
	35267	 35535	 0.000799258	 0.0062886	 0.23949	 832.0	 832.0	 832.0	 0.0	 0.0	 1	 -30.0	 30.0;
	35267	 36031	 0.000506752	 0.0028247	 0.102542	 669.0	 669.0	 669.0	 0.0	 0.0	 1	 -30.0	 30.0;
	35268	 35806	 0.000587866	 0.00462482	 0.176098	 832.0	 832.0	 832.0	 0.0	 0.0	 1	 -30.0	 30.0;
	35268	 36170	 0.00180109	 0.0238296	 0.943263	 1177.0	 1177.0	 1177.0	 0.0	 0.0	 1	 -30.0	 30.0;
	35268	 38878	 0.000462789	 0.00881356	 0.664292	 2354.0	 2354.0	 2354.0	 0.0	 0.0	 1	 -30.0	 30.0;
	35269	 36531	 0.0040441	 0.0234604	 0.861841	 691.0	 691.0	 691.0	 0.0	 0.0	 1	 -30.0	 30.0;
	35269	 36583	 0.000135815	 0.0014981	 0.0565998	 1028.0	 1028.0	 1028.0	 0.0	 0.0	 1	 -30.0	 30.0;
	35269	 38176	 0.00369475	 0.0356097	 1.41835	 947.0	 947.0	 947.0	 0.0	 0.0	 1	 -30.0	 30.0;
	35270	 36589	 0.000814264	 0.00530513	 0.200689	 744.0	 744.0	 744.0	 0.0	 0.0	 1	 -30.0	 30.0;
	35270	 36590	 7.9989e-05	 0.00112613	 0.0477835	 1258.0	 1258.0	 1258.0	 0.0	 0.0	 1	 -30.0	 30.0;
	35271	 35431	 0.000610112	 0.00340092	 0.123463	 669.0	 669.0	 669.0	 0.0	 0.0	 1	 -30.0	 30.0;
	35272	 35647	 0.0197463	 0.0688305	 0.0159638	 142.0	 142.0	 142.0	 0.0	 0.0	 1	 -30.0	 30.0;
	35272	 36571	 0.0217932	 0.0645058	 0.0120009	 118.0	 118.0	 118.0	 0.0	 0.0	 1	 -30.0	 30.0;
	35272	 36574	 0.0163447	 0.037078	 0.011836	 118.0	 118.0	 118.0	 0.0	 0.0	 1	 -30.0	 30.0;
	35272	 36575	 0.00817627	 0.0216088	 0.00505795	 118.0	 118.0	 118.0	 0.0	 0.0	 1	 -30.0	 30.0;
	35272	 36598	 0.0170136	 0.0662009	 0.0176863	 159.0	 159.0	 159.0	 0.0	 0.0	 1	 -30.0	 30.0;
	35273	 36254	 0.00107286	 0.0059813	 0.217185	 669.0	 669.0	 669.0	 0.0	 0.0	 1	 -30.0	 30.0;
	35273	 36590	 0.00017503	 0.00146709	 0.0564077	 1185.0	 1185.0	 1185.0	 0.0	 0.0	 1	 -30.0	 30.0;
	35274	 36148	 0.0251108	 0.0652025	 0.015829	 118.0	 118.0	 118.0	 0.0	 0.0	 1	 -30.0	 30.0;
	35275	 35701	 0.00387771	 0.0147394	 0.00412597	 159.0	 159.0	 159.0	 0.0	 0.0	 1	 -30.0	 30.0;
	35275	 76191	 0.0120306	 0.0716833	 0.0188643	 205.0	 205.0	 205.0	 0.0	 0.0	 1	 -30.0	 30.0;
	35276	 35717	 0.00192396	 0.00711374	 0.00210738	 159.0	 159.0	 159.0	 0.0	 0.0	 1	 -30.0	 30.0;
	35276	 35729	 0.00559358	 0.0136916	 0.00374559	 118.0	 118.0	 118.0	 0.0	 0.0	 1	 -30.0	 30.0;
	35277	 36408	 0.0147921	 0.0371857	 0.00963422	 118.0	 118.0	 118.0	 0.0	 0.0	 1	 -30.0	 30.0;
	35277	 36410	 0.0426584	 0.101073	 0.0295863	 118.0	 118.0	 118.0	 0.0	 0.0	 1	 -30.0	 30.0;
	35277	 75767	 0.0112698	 0.0431855	 0.0195348	 185.0	 185.0	 185.0	 0.0	 0.0	 1	 -30.0	 30.0;
	35278	 35439	 0.0200052	 0.0602529	 0.429281	 294.0	 294.0	 294.0	 0.0	 0.0	 1	 -30.0	 30.0;
	35278	 35565	 0.000607808	 0.00270618	 0.0214572	 398.0	 398.0	 398.0	 0.0	 0.0	 1	 -30.0	 30.0;
	35279	 35435	 0.0188642	 0.0461794	 0.0126347	 118.0	 118.0	 118.0	 0.0	 0.0	 1	 -30.0	 30.0;
	35279	 35678	 0.015987	 0.0491038	 0.00847551	 118.0	 118.0	 118.0	 0.0	 0.0	 1	 -30.0	 30.0;
	35279	 75820	 0.0103746	 0.0346104	 0.00877809	 142.0	 142.0	 142.0	 0.0	 0.0	 1	 -30.0	 30.0;
	35280	 36523	 0.010522	 0.0334114	 0.00937356	 142.0	 142.0	 142.0	 0.0	 0.0	 1	 -30.0	 30.0;
	35281	 36419	 0.0192277	 0.0446374	 0.0136006	 130.0	 130.0	 130.0	 0.0	 0.0	 1	 -30.0	 30.0;
	35281	 76049	 0.00750827	 0.0198484	 0.00576658	 128.0	 128.0	 128.0	 0.0	 0.0	 1	 -30.0	 30.0;
	35282	 36357	 0.0155831	 0.0444708	 0.351148	 294.0	 294.0	 294.0	 0.0	 0.0	 1	 -30.0	 30.0;
	35282	 36444	 0.0220392	 0.0630847	 0.499958	 294.0	 294.0	 294.0	 0.0	 0.0	 1	 -30.0	 30.0;
	35282	 36519	 0.00271898	 0.00787239	 0.0598127	 294.0	 294.0	 294.0	 0.0	 0.0	 1	 -30.0	 30.0;
	35284	 36292	 0.00832043	 0.0235675	 0.0369869	 196.0	 196.0	 196.0	 0.0	 0.0	 1	 -30.0	 30.0;
	35285	 36522	 0.0319544	 0.0821432	 0.00127129	 59.0	 59.0	 59.0	 0.0	 0.0	 1	 -30.0	 30.0;
	35285	 36537	 0.0141679	 0.048601	 0.000727696	 71.0	 71.0	 71.0	 0.0	 0.0	 1	 -30.0	 30.0;
	35286	 36495	 0.00243974	 0.0200059	 0.036042	 397.0	 397.0	 397.0	 0.0	 0.0	 1	 -30.0	 30.0;
	35286	 36503	 0.00352292	 0.00997728	 0.0156558	 196.0	 196.0	 196.0	 0.0	 0.0	 1	 -30.0	 30.0;
	35286	 76243	 0.00376926	 0.0222555	 0.0391097	 321.0	 321.0	 321.0	 0.0	 0.0	 1	 -30.0	 30.0;
	35287	 35711	 0.0078665	 0.0207954	 0.00604173	 128.0	 128.0	 128.0	 0.0	 0.0	 1	 -30.0	 30.0;
	35287	 75845	 0.0229621	 0.0543829	 0.0159116	 118.0	 118.0	 118.0	 0.0	 0.0	 1	 -30.0	 30.0;
	35288	 35490	 0.254591	 0.68435	 0.00970808	 59.0	 59.0	 59.0	 0.0	 0.0	 1	 -30.0	 30.0;
	35288	 36063	 0.0649698	 0.177508	 0.00301525	 64.0	 64.0	 64.0	 0.0	 0.0	 1	 -30.0	 30.0;
	35288	 75836	 0.0277789	 0.101745	 0.00257094	 88.0	 88.0	 88.0	 0.0	 0.0	 1	 -30.0	 30.0;
	35288	 76302	 0.128506	 0.314648	 0.00538183	 59.0	 59.0	 59.0	 0.0	 0.0	 1	 -30.0	 30.0;
	35289	 35430	 0.00323981	 0.0118558	 0.00248954	 153.3	 153.3	 153.3	 0.0	 0.0	 1	 -30.0	 30.0;
	35289	 75683	 0.00547311	 0.0173786	 0.00487529	 142.0	 142.0	 142.0	 0.0	 0.0	 1	 -30.0	 30.0;
	35290	 76046	 0.0750392	 0.153579	 0.00377968	 59.0	 59.0	 59.0	 0.0	 0.0	 1	 -30.0	 30.0;
	35291	 36593	 0.108524	 0.257044	 0.00470079	 59.0	 59.0	 59.0	 0.0	 0.0	 1	 -30.0	 30.0;
	35291	 76092	 0.141131	 0.334329	 0.0061153	 59.0	 59.0	 59.0	 0.0	 0.0	 1	 -30.0	 30.0;
	35291	 76172	 0.240229	 0.611634	 0.00968465	 59.0	 59.0	 59.0	 0.0	 0.0	 1	 -30.0	 30.0;
	35291	 76343	 0.0320578	 0.105794	 0.00171392	 71.0	 71.0	 71.0	 0.0	 0.0	 1	 -30.0	 30.0;
	35292	 36288	 0.000380458	 0.00253725	 0.00478189	 366.0	 366.0	 366.0	 0.0	 0.0	 1	 -30.0	 30.0;
	35293	 35599	 0.00023684	 0.0033346	 0.141507	 1258.0	 1258.0	 1258.0	 0.0	 0.0	 1	 -30.0	 30.0;
	35293	 36002	 0.000452387	 0.00252164	 0.0915386	 669.0	 669.0	 669.0	 0.0	 0.0	 1	 -30.0	 30.0;
	35294	 36592	 0.00472624	 0.018183	 0.00496638	 159.0	 159.0	 159.0	 0.0	 0.0	 1	 -30.0	 30.0;
	35294	 36594	 0.0183861	 0.0715441	 0.0191146	 159.0	 159.0	 159.0	 0.0	 0.0	 1	 -30.0	 30.0;
	35295	 36144	 0.0259572	 0.0697002	 0.0158002	 118.0	 118.0	 118.0	 0.0	 0.0	 1	 -30.0	 30.0;
	35296	 35547	 0.000876392	 0.00488561	 0.177381	 669.0	 669.0	 669.0	 0.0	 0.0	 1	 -30.0	 30.0;
	35296	 35550	 0.00106369	 0.00593014	 0.215326	 669.0	 669.0	 669.0	 0.0	 0.0	 1	 -30.0	 30.0;
	35297	 35542	 0.00260769	 0.014356	 0.00310157	 185.0	 185.0	 185.0	 0.0	 0.0	 1	 -30.0	 30.0;
	35297	 35543	 0.0218347	 0.051712	 0.0151298	 118.0	 118.0	 118.0	 0.0	 0.0	 1	 -30.0	 30.0;
	35297	 35740	 0.018287	 0.0603575	 0.0156479	 142.0	 142.0	 142.0	 0.0	 0.0	 1	 -30.0	 30.0;
	35298	 36142	 0.0187696	 0.0596084	 0.0167258	 142.0	 142.0	 142.0	 0.0	 0.0	 1	 -30.0	 30.0;
	35298	 36167	 0.0233987	 0.0580864	 0.015447	 118.0	 118.0	 118.0	 0.0	 0.0	 1	 -30.0	 30.0;
	35298	 76104	 0.0220914	 0.0532443	 0.0150354	 118.0	 118.0	 118.0	 0.0	 0.0	 1	 -30.0	 30.0;
	35300	 35611	 0.0340527	 0.0944686	 0.0200553	 118.0	 118.0	 118.0	 0.0	 0.0	 1	 -30.0	 30.0;
	35300	 35701	 0.00928844	 0.0264302	 0.00532369	 118.0	 118.0	 118.0	 0.0	 0.0	 1	 -30.0	 30.0;
	35300	 75756	 0.0416344	 0.111834	 0.0253613	 118.0	 118.0	 118.0	 0.0	 0.0	 1	 -30.0	 30.0;
	35301	 35696	 0.015077	 0.0441599	 0.00839067	 118.0	 118.0	 118.0	 0.0	 0.0	 1	 -30.0	 30.0;
	35301	 76299	 0.0594958	 0.15741	 0.0368925	 118.0	 118.0	 118.0	 0.0	 0.0	 1	 -30.0	 30.0;
	35301	 76303	 0.0121635	 0.030577	 0.0079218	 118.0	 118.0	 118.0	 0.0	 0.0	 1	 -30.0	 30.0;
	35302	 36421	 0.0210966	 0.0542383	 0.0134326	 118.0	 118.0	 118.0	 0.0	 0.0	 1	 -30.0	 30.0;
	35302	 75712	 0.0528378	 0.139762	 0.0327471	 118.0	 118.0	 118.0	 0.0	 0.0	 1	 -30.0	 30.0;
	35302	 76235	 0.0170053	 0.0437177	 0.0108265	 118.0	 118.0	 118.0	 0.0	 0.0	 1	 -30.0	 30.0;
	35303	 35504	 0.0117987	 0.0327311	 0.0536146	 196.0	 196.0	 196.0	 0.0	 0.0	 1	 -30.0	 30.0;
	35303	 35735	 0.00788929	 0.0237979	 0.0407865	 213.0	 213.0	 213.0	 0.0	 0.0	 1	 -30.0	 30.0;
	35303	 36495	 0.0111373	 0.0468998	 0.0824338	 265.0	 265.0	 265.0	 0.0	 0.0	 1	 -30.0	 30.0;
	35304	 35988	 0.000240247	 0.00133912	 0.0486096	 669.0	 669.0	 669.0	 0.0	 0.0	 1	 -30.0	 30.0;
	35305	 35669	 0.0113506	 0.0321549	 0.0504727	 196.0	 196.0	 196.0	 0.0	 0.0	 1	 -30.0	 30.0;
	35305	 36292	 0.0285715	 0.123433	 0.208695	 265.0	 265.0	 265.0	 0.0	 0.0	 1	 -30.0	 30.0;
	35305	 75682	 0.0131718	 0.0365431	 0.0598647	 296.0	 296.0	 296.0	 0.0	 0.0	 1	 -30.0	 30.0;
	35306	 35554	 0.00467673	 0.0131123	 0.0210089	 196.0	 196.0	 196.0	 0.0	 0.0	 1	 -30.0	 30.0;
	35307	 35842	 0.00268806	 0.00675706	 0.00175051	 118.0	 118.0	 118.0	 0.0	 0.0	 1	 -30.0	 30.0;
	35307	 35843	 0.00304395	 0.00765168	 0.00198227	 118.0	 118.0	 118.0	 0.0	 0.0	 1	 -30.0	 30.0;
	35308	 36653	 0.00209378	 0.0148054	 0.125545	 695.4	 695.4	 695.4	 0.0	 0.0	 1	 -30.0	 30.0;
	35308	 76853	 0.015104	 0.0426803	 0.343708	 294.0	 294.0	 294.0	 0.0	 0.0	 1	 -30.0	 30.0;
	35309	 37069	 0.00152523	 0.0107826	 2.24067	 1216.0	 1216.0	 1216.0	 0.0	 0.0	 1	 -30.0	 30.0;
	35309	 37399	 0.000511523	 0.00391945	 0.682963	 1216.0	 1216.0	 1216.0	 0.0	 0.0	 1	 -30.0	 30.0;
	35309	 37678	 0.000338144	 0.00475295	 1.8808	 2896.0	 2896.0	 2896.0	 0.0	 0.0	 1	 -30.0	 30.0;
	35310	 37071	 0.000887474	 0.00744132	 0.286254	 863.0	 863.0	 863.0	 0.0	 0.0	 1	 -30.0	 30.0;
	35310	 37632	 0.00195214	 0.0127297	 0.482157	 744.0	 744.0	 744.0	 0.0	 0.0	 1	 -30.0	 30.0;
	35311	 36648	 0.000354853	 0.00500066	 1.16441	 1925.0	 1925.0	 1925.0	 0.0	 0.0	 1	 -30.0	 30.0;
	35311	 36774	 7.33008e-05	 0.00137472	 0.275425	 2213.0	 2213.0	 2213.0	 0.0	 0.0	 1	 -30.0	 30.0;
	35311	 36974	 0.000207977	 0.00159297	 0.277422	 1216.0	 1216.0	 1216.0	 0.0	 0.0	 1	 -30.0	 30.0;
	35312	 37031	 0.000730856	 0.0106532	 3.45718	 2775.0	 2775.0	 2775.0	 0.0	 0.0	 1	 -30.0	 30.0;
	35312	 37069	 0.00117938	 0.00893944	 1.60314	 1216.0	 1216.0	 1216.0	 0.0	 0.0	 1	 -30.0	 30.0;
	35312	 37399	 0.000906009	 0.0069489	 1.21257	 1216.0	 1216.0	 1216.0	 0.0	 0.0	 1	 -30.0	 30.0;
	35312	 37460	 0.00217256	 0.015427	 3.22631	 1216.0	 1216.0	 1216.0	 0.0	 0.0	 1	 -30.0	 30.0;
	35313	 37017	 0.000896959	 0.0050003	 0.181547	 669.0	 669.0	 669.0	 0.0	 0.0	 1	 -30.0	 30.0;
	35313	 37276	 0.000308478	 0.00434347	 0.184335	 1258.0	 1258.0	 1258.0	 0.0	 0.0	 1	 -30.0	 30.0;
	35314	 36648	 0.0013256	 0.0101839	 1.78136	 1216.0	 1216.0	 1216.0	 0.0	 0.0	 1	 -30.0	 30.0;
	35314	 37471	 0.000103662	 0.000729831	 0.150763	 1216.0	 1216.0	 1216.0	 0.0	 0.0	 1	 -30.0	 30.0;
	35315	 36833	 0.0018796	 0.0104839	 0.380927	 669.0	 669.0	 669.0	 0.0	 0.0	 1	 -30.0	 30.0;
	35316	 36685	 0.000315122	 0.00241388	 0.420445	 1216.0	 1216.0	 1216.0	 0.0	 0.0	 1	 -30.0	 30.0;
	35316	 37467	 0.00070505	 0.00533574	 0.954688	 1216.0	 1216.0	 1216.0	 0.0	 0.0	 1	 -30.0	 30.0;
	35317	 36685	 0.000274472	 0.00210241	 0.366172	 1216.0	 1216.0	 1216.0	 0.0	 0.0	 1	 -30.0	 30.0;
	35318	 37189	 0.000294124	 0.00222431	 0.397567	 1216.0	 1216.0	 1216.0	 0.0	 0.0	 1	 -30.0	 30.0;
	35318	 37534	 0.000150887	 0.0012752	 0.22999	 1273.0	 1273.0	 1273.0	 0.0	 0.0	 1	 -30.0	 30.0;
	35319	 37069	 0.000422591	 0.00297611	 0.615041	 1216.0	 1216.0	 1216.0	 0.0	 0.0	 1	 -30.0	 30.0;
	35320	 36833	 0.00193363	 0.0107857	 0.391915	 669.0	 669.0	 669.0	 0.0	 0.0	 1	 -30.0	 30.0;
	35320	 37480	 0.00120148	 0.0114906	 0.452523	 947.0	 947.0	 947.0	 0.0	 0.0	 1	 -30.0	 30.0;
	35321	 37409	 0.000299211	 0.00210688	 0.435308	 1216.0	 1216.0	 1216.0	 0.0	 0.0	 1	 -30.0	 30.0;
	35321	 37422	 9.88317e-05	 0.000756947	 0.131814	 1216.0	 1216.0	 1216.0	 0.0	 0.0	 1	 -30.0	 30.0;
	35321	 42621	 0.000104847	 0.000824752	 0.172059	 1273.0	 1273.0	 1273.0	 0.0	 0.0	 1	 -30.0	 30.0;
	35322	 37031	 0.000739632	 0.00721839	 1.29676	 1387.0	 1387.0	 1387.0	 0.0	 0.0	 1	 -30.0	 30.0;
	35322	 37275	 3.17452e-05	 0.000500906	 0.201056	 3146.0	 3146.0	 3146.0	 0.0	 0.0	 1	 -30.0	 30.0;
	35323	 36835	 0.000215779	 0.00120273	 0.0436588	 669.0	 669.0	 669.0	 0.0	 0.0	 1	 -30.0	 30.0;
	35324	 36691	 0.000322211	 0.0024682	 0.429912	 1216.0	 1216.0	 1216.0	 0.0	 0.0	 1	 -30.0	 30.0;
	35324	 36976	 0.000147388	 0.00112886	 0.196584	 1216.0	 1216.0	 1216.0	 0.0	 0.0	 1	 -30.0	 30.0;
	35324	 37282	 0.000190309	 0.00222287	 0.409862	 1573.0	 1573.0	 1573.0	 0.0	 0.0	 1	 -30.0	 30.0;
	35325	 37594	 9.72513e-05	 0.000744843	 0.129706	 1216.0	 1216.0	 1216.0	 0.0	 0.0	 1	 -30.0	 30.0;
	35326	 37078	 0.02387	 0.101076	 0.0305123	 222.2	 222.2	 222.2	 0.0	 0.0	 1	 -30.0	 30.0;
	35327	 37444	 0.00835849	 0.0236754	 0.0371562	 259.0	 259.0	 259.0	 0.0	 0.0	 1	 -30.0	 30.0;
	35327	 37584	 0.00820218	 0.0221816	 0.0382449	 196.0	 196.0	 196.0	 0.0	 0.0	 1	 -30.0	 30.0;
	35327	 76454	 0.00420979	 0.0242432	 0.0400266	 418.0	 418.0	 418.0	 0.0	 0.0	 1	 -30.0	 30.0;
	35328	 36705	 0.0353648	 0.0821235	 0.0250302	 118.0	 118.0	 118.0	 0.0	 0.0	 1	 -30.0	 30.0;
	35328	 37013	 0.00773069	 0.0207545	 0.00470372	 234.0	 234.0	 234.0	 0.0	 0.0	 1	 -30.0	 30.0;
	35328	 37479	 0.0671453	 0.137619	 0.0542689	 118.0	 118.0	 118.0	 0.0	 0.0	 1	 -30.0	 30.0;
	35329	 37460	 1.9314e-05	 0.000147923	 0.0257585	 1216.0	 1216.0	 1216.0	 0.0	 0.0	 1	 -30.0	 30.0;
	35330	 37091	 0.00188227	 0.00549182	 0.00105132	 118.0	 118.0	 118.0	 0.0	 0.0	 1	 -30.0	 30.0;
	35330	 37092	 0.00393534	 0.00892658	 0.00284927	 118.0	 118.0	 118.0	 0.0	 0.0	 1	 -30.0	 30.0;
...